version 2
run careggiRVV-0-20150327-04:55:27-3372
attr configname careggiRVV
attr datetime 20150327-04:55:27
attr experiment careggiRVV
attr inifile omnetpp.ini
attr iterationvars ""
attr iterationvars2 $repetition=0
attr measurement ""
attr network RSUExampleScenario
attr processid 3372
attr repetition 0
attr replication #0
attr resultdir results
attr runnumber 0
attr seedset 0

scalar RSUExampleScenario.node[0].veinsmobility 	startTime 	2.1
scalar RSUExampleScenario.node[0].veinsmobility 	totalTime 	44
scalar RSUExampleScenario.node[0].veinsmobility 	stopTime 	46.2
scalar RSUExampleScenario.node[0].veinsmobility 	minSpeed 	0.25286542447004
scalar RSUExampleScenario.node[0].veinsmobility 	maxSpeed 	22.216844547931
scalar RSUExampleScenario.node[0].veinsmobility 	totalDistance 	552.67944737153
scalar RSUExampleScenario.node[0].veinsmobility 	totalCO2Emission 	240.76972965424
scalar RSUExampleScenario.node[3].veinsmobility 	startTime 	8.1
scalar RSUExampleScenario.node[3].veinsmobility 	totalTime 	65.7
scalar RSUExampleScenario.node[3].veinsmobility 	stopTime 	73.9
scalar RSUExampleScenario.node[3].veinsmobility 	minSpeed 	0.25175443730899
scalar RSUExampleScenario.node[3].veinsmobility 	maxSpeed 	22.218268904851
scalar RSUExampleScenario.node[3].veinsmobility 	totalDistance 	907.22834864461
scalar RSUExampleScenario.node[3].veinsmobility 	totalCO2Emission 	297.15705367431
scalar RSUExampleScenario.node[9].veinsmobility 	startTime 	19.1
scalar RSUExampleScenario.node[9].veinsmobility 	totalTime 	72.4
scalar RSUExampleScenario.node[9].veinsmobility 	stopTime 	91.6
scalar RSUExampleScenario.node[9].veinsmobility 	minSpeed 	0.070435220726692
scalar RSUExampleScenario.node[9].veinsmobility 	maxSpeed 	22.205989101576
scalar RSUExampleScenario.node[9].veinsmobility 	totalDistance 	867.96161825444
scalar RSUExampleScenario.node[9].veinsmobility 	totalCO2Emission 	228.49325250439
scalar RSUExampleScenario.node[34].veinsmobility 	startTime 	55.1
scalar RSUExampleScenario.node[34].veinsmobility 	totalTime 	43.1
scalar RSUExampleScenario.node[34].veinsmobility 	stopTime 	98.3
scalar RSUExampleScenario.node[34].veinsmobility 	minSpeed 	0.0008821476949286
scalar RSUExampleScenario.node[34].veinsmobility 	maxSpeed 	13.889750396223
scalar RSUExampleScenario.node[34].veinsmobility 	totalDistance 	371.51395415815
scalar RSUExampleScenario.node[34].veinsmobility 	totalCO2Emission 	120.15132832404
scalar RSUExampleScenario.node[1].veinsmobility 	startTime 	5.1
scalar RSUExampleScenario.node[1].veinsmobility 	totalTime 	119
scalar RSUExampleScenario.node[1].veinsmobility 	stopTime 	124.2
scalar RSUExampleScenario.node[1].veinsmobility 	minSpeed 	4.3732728190203e-006
scalar RSUExampleScenario.node[1].veinsmobility 	maxSpeed 	17.574940754322
scalar RSUExampleScenario.node[1].veinsmobility 	totalDistance 	1270.6513857339
scalar RSUExampleScenario.node[1].veinsmobility 	totalCO2Emission 	324.78493482458
scalar RSUExampleScenario.node[25].veinsmobility 	startTime 	39.1
scalar RSUExampleScenario.node[25].veinsmobility 	totalTime 	85.9
scalar RSUExampleScenario.node[25].veinsmobility 	stopTime 	125.1
scalar RSUExampleScenario.node[25].veinsmobility 	minSpeed 	0.25759839908779
scalar RSUExampleScenario.node[25].veinsmobility 	maxSpeed 	22.219876849744
scalar RSUExampleScenario.node[25].veinsmobility 	totalDistance 	1385.8681222401
scalar RSUExampleScenario.node[25].veinsmobility 	totalCO2Emission 	378.98898598627
scalar RSUExampleScenario.node[15].veinsmobility 	startTime 	27.1
scalar RSUExampleScenario.node[15].veinsmobility 	totalTime 	105.7
scalar RSUExampleScenario.node[15].veinsmobility 	stopTime 	132.9
scalar RSUExampleScenario.node[15].veinsmobility 	minSpeed 	0.2535401082777
scalar RSUExampleScenario.node[15].veinsmobility 	maxSpeed 	22.219894360469
scalar RSUExampleScenario.node[15].veinsmobility 	totalDistance 	1476.509364658
scalar RSUExampleScenario.node[15].veinsmobility 	totalCO2Emission 	520.68089890153
scalar RSUExampleScenario.node[42].veinsmobility 	startTime 	70.1
scalar RSUExampleScenario.node[42].veinsmobility 	totalTime 	68.8
scalar RSUExampleScenario.node[42].veinsmobility 	stopTime 	139
scalar RSUExampleScenario.node[42].veinsmobility 	minSpeed 	0.25430349380989
scalar RSUExampleScenario.node[42].veinsmobility 	maxSpeed 	22.219189593685
scalar RSUExampleScenario.node[42].veinsmobility 	totalDistance 	949.32696881188
scalar RSUExampleScenario.node[42].veinsmobility 	totalCO2Emission 	255.64555342633
scalar RSUExampleScenario.node[14].veinsmobility 	startTime 	26.1
scalar RSUExampleScenario.node[14].veinsmobility 	totalTime 	118.3
scalar RSUExampleScenario.node[14].veinsmobility 	stopTime 	144.5
scalar RSUExampleScenario.node[14].veinsmobility 	minSpeed 	0.25476066196198
scalar RSUExampleScenario.node[14].veinsmobility 	maxSpeed 	22.219896379919
scalar RSUExampleScenario.node[14].veinsmobility 	totalDistance 	2011.5532884591
scalar RSUExampleScenario.node[14].veinsmobility 	totalCO2Emission 	492.00671386017
scalar RSUExampleScenario.node[21].veinsmobility 	startTime 	35.1
scalar RSUExampleScenario.node[21].veinsmobility 	totalTime 	111.9
scalar RSUExampleScenario.node[21].veinsmobility 	stopTime 	147.1
scalar RSUExampleScenario.node[21].veinsmobility 	minSpeed 	0.2570433920545
scalar RSUExampleScenario.node[21].veinsmobility 	maxSpeed 	31.939831413899
scalar RSUExampleScenario.node[21].veinsmobility 	totalDistance 	2981.5489730163
scalar RSUExampleScenario.node[21].veinsmobility 	totalCO2Emission 	754.5218050561
scalar RSUExampleScenario.node[50].veinsmobility 	startTime 	80.1
scalar RSUExampleScenario.node[50].veinsmobility 	totalTime 	75.1
scalar RSUExampleScenario.node[50].veinsmobility 	stopTime 	155.3
scalar RSUExampleScenario.node[50].veinsmobility 	minSpeed 	0.25075542168343
scalar RSUExampleScenario.node[50].veinsmobility 	maxSpeed 	22.219775987107
scalar RSUExampleScenario.node[50].veinsmobility 	totalDistance 	1120.1356617058
scalar RSUExampleScenario.node[50].veinsmobility 	totalCO2Emission 	352.77831813734
scalar RSUExampleScenario.node[37].veinsmobility 	startTime 	62.1
scalar RSUExampleScenario.node[37].veinsmobility 	totalTime 	93.5
scalar RSUExampleScenario.node[37].veinsmobility 	stopTime 	155.7
scalar RSUExampleScenario.node[37].veinsmobility 	minSpeed 	0.25754999955883
scalar RSUExampleScenario.node[37].veinsmobility 	maxSpeed 	22.21949415501
scalar RSUExampleScenario.node[37].veinsmobility 	totalDistance 	1147.2462041779
scalar RSUExampleScenario.node[37].veinsmobility 	totalCO2Emission 	335.37188636732
scalar RSUExampleScenario.node[12].veinsmobility 	startTime 	23.1
scalar RSUExampleScenario.node[12].veinsmobility 	totalTime 	144.6
scalar RSUExampleScenario.node[12].veinsmobility 	stopTime 	167.8
scalar RSUExampleScenario.node[12].veinsmobility 	minSpeed 	0.25231665033801
scalar RSUExampleScenario.node[12].veinsmobility 	maxSpeed 	22.219658013191
scalar RSUExampleScenario.node[12].veinsmobility 	totalDistance 	2107.4913608018
scalar RSUExampleScenario.node[12].veinsmobility 	totalCO2Emission 	483.88210795263
scalar RSUExampleScenario.node[18].veinsmobility 	startTime 	32.1
scalar RSUExampleScenario.node[18].veinsmobility 	totalTime 	136.2
scalar RSUExampleScenario.node[18].veinsmobility 	stopTime 	168.4
scalar RSUExampleScenario.node[18].veinsmobility 	minSpeed 	0.24707496988191
scalar RSUExampleScenario.node[18].veinsmobility 	maxSpeed 	22.219628236578
scalar RSUExampleScenario.node[18].veinsmobility 	totalDistance 	1734.2290512782
scalar RSUExampleScenario.node[18].veinsmobility 	totalCO2Emission 	513.98752226667
scalar RSUExampleScenario.node[28].veinsmobility 	startTime 	44.1
scalar RSUExampleScenario.node[28].veinsmobility 	totalTime 	134.8
scalar RSUExampleScenario.node[28].veinsmobility 	stopTime 	179
scalar RSUExampleScenario.node[28].veinsmobility 	minSpeed 	0.25644270199537
scalar RSUExampleScenario.node[28].veinsmobility 	maxSpeed 	13.889679011211
scalar RSUExampleScenario.node[28].veinsmobility 	totalDistance 	1216.2575052032
scalar RSUExampleScenario.node[28].veinsmobility 	totalCO2Emission 	284.59834519934
scalar RSUExampleScenario.node[100].veinsmobility 	startTime 	151.1
scalar RSUExampleScenario.node[100].veinsmobility 	totalTime 	34
scalar RSUExampleScenario.node[100].veinsmobility 	stopTime 	185.2
scalar RSUExampleScenario.node[100].veinsmobility 	minSpeed 	0.2561503706309
scalar RSUExampleScenario.node[100].veinsmobility 	maxSpeed 	22.219902148754
scalar RSUExampleScenario.node[100].veinsmobility 	totalDistance 	629.10545211155
scalar RSUExampleScenario.node[100].veinsmobility 	totalCO2Emission 	162.72304936102
scalar RSUExampleScenario.node[11].veinsmobility 	startTime 	22.1
scalar RSUExampleScenario.node[11].veinsmobility 	totalTime 	168.1
scalar RSUExampleScenario.node[11].veinsmobility 	stopTime 	190.3
scalar RSUExampleScenario.node[11].veinsmobility 	minSpeed 	2.0219213322866e-013
scalar RSUExampleScenario.node[11].veinsmobility 	maxSpeed 	22.219913833649
scalar RSUExampleScenario.node[11].veinsmobility 	totalDistance 	2033.4452305636
scalar RSUExampleScenario.node[11].veinsmobility 	totalCO2Emission 	551.072643053
scalar RSUExampleScenario.node[32].veinsmobility 	startTime 	50.1
scalar RSUExampleScenario.node[32].veinsmobility 	totalTime 	140.6
scalar RSUExampleScenario.node[32].veinsmobility 	stopTime 	190.8
scalar RSUExampleScenario.node[32].veinsmobility 	minSpeed 	1.7002955307859e-009
scalar RSUExampleScenario.node[32].veinsmobility 	maxSpeed 	22.219790904108
scalar RSUExampleScenario.node[32].veinsmobility 	totalDistance 	1068.6234034654
scalar RSUExampleScenario.node[32].veinsmobility 	totalCO2Emission 	375.84613865221
scalar RSUExampleScenario.node[77].veinsmobility 	startTime 	121.1
scalar RSUExampleScenario.node[77].veinsmobility 	totalTime 	78
scalar RSUExampleScenario.node[77].veinsmobility 	stopTime 	199.2
scalar RSUExampleScenario.node[77].veinsmobility 	minSpeed 	0.25751075337688
scalar RSUExampleScenario.node[77].veinsmobility 	maxSpeed 	13.8898706676
scalar RSUExampleScenario.node[77].veinsmobility 	totalDistance 	842.93781931186
scalar RSUExampleScenario.node[77].veinsmobility 	totalCO2Emission 	230.10365185838
scalar RSUExampleScenario.node[31].veinsmobility 	startTime 	49.1
scalar RSUExampleScenario.node[31].veinsmobility 	totalTime 	151.5
scalar RSUExampleScenario.node[31].veinsmobility 	stopTime 	200.7
scalar RSUExampleScenario.node[31].veinsmobility 	minSpeed 	1.5038280819711e-006
scalar RSUExampleScenario.node[31].veinsmobility 	maxSpeed 	22.219814440855
scalar RSUExampleScenario.node[31].veinsmobility 	totalDistance 	2192.4213235387
scalar RSUExampleScenario.node[31].veinsmobility 	totalCO2Emission 	621.04951384728
scalar RSUExampleScenario.node[73].veinsmobility 	startTime 	117.1
scalar RSUExampleScenario.node[73].veinsmobility 	totalTime 	85.2
scalar RSUExampleScenario.node[73].veinsmobility 	stopTime 	202.4
scalar RSUExampleScenario.node[73].veinsmobility 	minSpeed 	0.00042837603306451
scalar RSUExampleScenario.node[73].veinsmobility 	maxSpeed 	22.219534964424
scalar RSUExampleScenario.node[73].veinsmobility 	totalDistance 	962.68403066213
scalar RSUExampleScenario.node[73].veinsmobility 	totalCO2Emission 	295.15963924215
scalar RSUExampleScenario.node[16].veinsmobility 	startTime 	29.1
scalar RSUExampleScenario.node[16].veinsmobility 	totalTime 	175.9
scalar RSUExampleScenario.node[16].veinsmobility 	stopTime 	205.1
scalar RSUExampleScenario.node[16].veinsmobility 	minSpeed 	0.00099976169539559
scalar RSUExampleScenario.node[16].veinsmobility 	maxSpeed 	22.219850065727
scalar RSUExampleScenario.node[16].veinsmobility 	totalDistance 	1981.8447480158
scalar RSUExampleScenario.node[16].veinsmobility 	totalCO2Emission 	553.84333536716
scalar RSUExampleScenario.node[26].veinsmobility 	startTime 	40.1
scalar RSUExampleScenario.node[26].veinsmobility 	totalTime 	165.6
scalar RSUExampleScenario.node[26].veinsmobility 	stopTime 	205.8
scalar RSUExampleScenario.node[26].veinsmobility 	minSpeed 	0.0022986094991943
scalar RSUExampleScenario.node[26].veinsmobility 	maxSpeed 	22.219997396106
scalar RSUExampleScenario.node[26].veinsmobility 	totalDistance 	2378.178406457
scalar RSUExampleScenario.node[26].veinsmobility 	totalCO2Emission 	709.7843313036
scalar RSUExampleScenario.node[17].veinsmobility 	startTime 	30.1
scalar RSUExampleScenario.node[17].veinsmobility 	totalTime 	184.2
scalar RSUExampleScenario.node[17].veinsmobility 	stopTime 	214.4
scalar RSUExampleScenario.node[17].veinsmobility 	minSpeed 	3.6961639293023e-011
scalar RSUExampleScenario.node[17].veinsmobility 	maxSpeed 	22.219914715295
scalar RSUExampleScenario.node[17].veinsmobility 	totalDistance 	2157.6272380193
scalar RSUExampleScenario.node[17].veinsmobility 	totalCO2Emission 	790.24759364455
scalar RSUExampleScenario.node[7].veinsmobility 	startTime 	17.1
scalar RSUExampleScenario.node[7].veinsmobility 	totalTime 	199.2
scalar RSUExampleScenario.node[7].veinsmobility 	stopTime 	216.4
scalar RSUExampleScenario.node[7].veinsmobility 	minSpeed 	1.1264257626724e-013
scalar RSUExampleScenario.node[7].veinsmobility 	maxSpeed 	22.218320954796
scalar RSUExampleScenario.node[7].veinsmobility 	totalDistance 	1734.8872914495
scalar RSUExampleScenario.node[7].veinsmobility 	totalCO2Emission 	616.85261529041
scalar RSUExampleScenario.node[8].veinsmobility 	startTime 	18.1
scalar RSUExampleScenario.node[8].veinsmobility 	totalTime 	202.2
scalar RSUExampleScenario.node[8].veinsmobility 	stopTime 	220.4
scalar RSUExampleScenario.node[8].veinsmobility 	minSpeed 	8.2029408642164e-006
scalar RSUExampleScenario.node[8].veinsmobility 	maxSpeed 	22.219904399482
scalar RSUExampleScenario.node[8].veinsmobility 	totalDistance 	2754.0438666619
scalar RSUExampleScenario.node[8].veinsmobility 	totalCO2Emission 	856.63505187007
scalar RSUExampleScenario.node[93].veinsmobility 	startTime 	140.1
scalar RSUExampleScenario.node[93].veinsmobility 	totalTime 	81
scalar RSUExampleScenario.node[93].veinsmobility 	stopTime 	221.2
scalar RSUExampleScenario.node[93].veinsmobility 	minSpeed 	0.25600594546366
scalar RSUExampleScenario.node[93].veinsmobility 	maxSpeed 	22.216796856849
scalar RSUExampleScenario.node[93].veinsmobility 	totalDistance 	1076.4632856357
scalar RSUExampleScenario.node[93].veinsmobility 	totalCO2Emission 	271.8576855892
scalar RSUExampleScenario.node[33].veinsmobility 	startTime 	53.1
scalar RSUExampleScenario.node[33].veinsmobility 	totalTime 	170.2
scalar RSUExampleScenario.node[33].veinsmobility 	stopTime 	223.4
scalar RSUExampleScenario.node[33].veinsmobility 	minSpeed 	0.25753017518879
scalar RSUExampleScenario.node[33].veinsmobility 	maxSpeed 	22.219626313411
scalar RSUExampleScenario.node[33].veinsmobility 	totalDistance 	2075.9779229287
scalar RSUExampleScenario.node[33].veinsmobility 	totalCO2Emission 	576.19430841392
scalar RSUExampleScenario.node[56].veinsmobility 	startTime 	90.1
scalar RSUExampleScenario.node[56].veinsmobility 	totalTime 	134.5
scalar RSUExampleScenario.node[56].veinsmobility 	stopTime 	224.7
scalar RSUExampleScenario.node[56].veinsmobility 	minSpeed 	0.24810730347177
scalar RSUExampleScenario.node[56].veinsmobility 	maxSpeed 	22.2192991597
scalar RSUExampleScenario.node[56].veinsmobility 	totalDistance 	1633.6059398831
scalar RSUExampleScenario.node[56].veinsmobility 	totalCO2Emission 	395.85278642916
scalar RSUExampleScenario.node[76].veinsmobility 	startTime 	120.1
scalar RSUExampleScenario.node[76].veinsmobility 	totalTime 	105.1
scalar RSUExampleScenario.node[76].veinsmobility 	stopTime 	225.3
scalar RSUExampleScenario.node[76].veinsmobility 	minSpeed 	0.0096612968977586
scalar RSUExampleScenario.node[76].veinsmobility 	maxSpeed 	22.218901910181
scalar RSUExampleScenario.node[76].veinsmobility 	totalDistance 	1355.1063764669
scalar RSUExampleScenario.node[76].veinsmobility 	totalCO2Emission 	416.25626892914
scalar RSUExampleScenario.node[96].veinsmobility 	startTime 	144.1
scalar RSUExampleScenario.node[96].veinsmobility 	totalTime 	85.7
scalar RSUExampleScenario.node[96].veinsmobility 	stopTime 	229.9
scalar RSUExampleScenario.node[96].veinsmobility 	minSpeed 	0.25700627095439
scalar RSUExampleScenario.node[96].veinsmobility 	maxSpeed 	22.219991763961
scalar RSUExampleScenario.node[96].veinsmobility 	totalDistance 	1298.8203105358
scalar RSUExampleScenario.node[96].veinsmobility 	totalCO2Emission 	361.63828101159
scalar RSUExampleScenario.node[70].veinsmobility 	startTime 	113.1
scalar RSUExampleScenario.node[70].veinsmobility 	totalTime 	117.6
scalar RSUExampleScenario.node[70].veinsmobility 	stopTime 	230.8
scalar RSUExampleScenario.node[70].veinsmobility 	minSpeed 	0.24778676454397
scalar RSUExampleScenario.node[70].veinsmobility 	maxSpeed 	21.038604182366
scalar RSUExampleScenario.node[70].veinsmobility 	totalDistance 	1427.6041544718
scalar RSUExampleScenario.node[70].veinsmobility 	totalCO2Emission 	411.00217112691
scalar RSUExampleScenario.node[6].veinsmobility 	startTime 	15.1
scalar RSUExampleScenario.node[6].veinsmobility 	totalTime 	220.3
scalar RSUExampleScenario.node[6].veinsmobility 	stopTime 	235.5
scalar RSUExampleScenario.node[6].veinsmobility 	minSpeed 	5.6625428515854e-015
scalar RSUExampleScenario.node[6].veinsmobility 	maxSpeed 	22.219072602026
scalar RSUExampleScenario.node[6].veinsmobility 	totalDistance 	2130.7874650289
scalar RSUExampleScenario.node[6].veinsmobility 	totalCO2Emission 	719.23466233467
scalar RSUExampleScenario.node[38].veinsmobility 	startTime 	63.1
scalar RSUExampleScenario.node[38].veinsmobility 	totalTime 	179.8
scalar RSUExampleScenario.node[38].veinsmobility 	stopTime 	243
scalar RSUExampleScenario.node[38].veinsmobility 	minSpeed 	0.26
scalar RSUExampleScenario.node[38].veinsmobility 	maxSpeed 	22.219873845768
scalar RSUExampleScenario.node[38].veinsmobility 	totalDistance 	1894.3208265971
scalar RSUExampleScenario.node[38].veinsmobility 	totalCO2Emission 	617.13158091054
scalar RSUExampleScenario.node[36].veinsmobility 	startTime 	58.1
scalar RSUExampleScenario.node[36].veinsmobility 	totalTime 	187.2
scalar RSUExampleScenario.node[36].veinsmobility 	stopTime 	245.4
scalar RSUExampleScenario.node[36].veinsmobility 	minSpeed 	0.0009743544674201
scalar RSUExampleScenario.node[36].veinsmobility 	maxSpeed 	22.219606927796
scalar RSUExampleScenario.node[36].veinsmobility 	totalDistance 	2110.8803331777
scalar RSUExampleScenario.node[36].veinsmobility 	totalCO2Emission 	715.5964946413
scalar RSUExampleScenario.node[62].veinsmobility 	startTime 	97.1
scalar RSUExampleScenario.node[62].veinsmobility 	totalTime 	152.6
scalar RSUExampleScenario.node[62].veinsmobility 	stopTime 	249.8
scalar RSUExampleScenario.node[62].veinsmobility 	minSpeed 	1.5024746047643e-009
scalar RSUExampleScenario.node[62].veinsmobility 	maxSpeed 	22.219900360159
scalar RSUExampleScenario.node[62].veinsmobility 	totalDistance 	1842.8275120695
scalar RSUExampleScenario.node[62].veinsmobility 	totalCO2Emission 	572.97654030046
scalar RSUExampleScenario.node[115].veinsmobility 	startTime 	174.2
scalar RSUExampleScenario.node[115].veinsmobility 	totalTime 	77.6
scalar RSUExampleScenario.node[115].veinsmobility 	stopTime 	251.9
scalar RSUExampleScenario.node[115].veinsmobility 	minSpeed 	0.00011466964578932
scalar RSUExampleScenario.node[115].veinsmobility 	maxSpeed 	22.176932650215
scalar RSUExampleScenario.node[115].veinsmobility 	totalDistance 	569.91323348754
scalar RSUExampleScenario.node[115].veinsmobility 	totalCO2Emission 	235.98304437571
scalar RSUExampleScenario.node[60].veinsmobility 	startTime 	95.1
scalar RSUExampleScenario.node[60].veinsmobility 	totalTime 	157
scalar RSUExampleScenario.node[60].veinsmobility 	stopTime 	252.2
scalar RSUExampleScenario.node[60].veinsmobility 	minSpeed 	0.25008745501027
scalar RSUExampleScenario.node[60].veinsmobility 	maxSpeed 	22.219118159094
scalar RSUExampleScenario.node[60].veinsmobility 	totalDistance 	2084.1967287078
scalar RSUExampleScenario.node[60].veinsmobility 	totalCO2Emission 	592.09689910497
scalar RSUExampleScenario.node[125].veinsmobility 	startTime 	186.1
scalar RSUExampleScenario.node[125].veinsmobility 	totalTime 	68
scalar RSUExampleScenario.node[125].veinsmobility 	stopTime 	254.2
scalar RSUExampleScenario.node[125].veinsmobility 	minSpeed 	0.25340152498567
scalar RSUExampleScenario.node[125].veinsmobility 	maxSpeed 	22.219635071876
scalar RSUExampleScenario.node[125].veinsmobility 	totalDistance 	847.14040469567
scalar RSUExampleScenario.node[125].veinsmobility 	totalCO2Emission 	250.39940907883
scalar RSUExampleScenario.node[104].veinsmobility 	startTime 	156.1
scalar RSUExampleScenario.node[104].veinsmobility 	totalTime 	98.3
scalar RSUExampleScenario.node[104].veinsmobility 	stopTime 	254.5
scalar RSUExampleScenario.node[104].veinsmobility 	minSpeed 	0.25262869677483
scalar RSUExampleScenario.node[104].veinsmobility 	maxSpeed 	22.219794815669
scalar RSUExampleScenario.node[104].veinsmobility 	totalDistance 	1383.4593697356
scalar RSUExampleScenario.node[104].veinsmobility 	totalCO2Emission 	307.77097943699
scalar RSUExampleScenario.node[19].veinsmobility 	startTime 	33.1
scalar RSUExampleScenario.node[19].veinsmobility 	totalTime 	223.5
scalar RSUExampleScenario.node[19].veinsmobility 	stopTime 	256.7
scalar RSUExampleScenario.node[19].veinsmobility 	minSpeed 	3.1559933140558e-014
scalar RSUExampleScenario.node[19].veinsmobility 	maxSpeed 	22.219880711909
scalar RSUExampleScenario.node[19].veinsmobility 	totalDistance 	2048.3129853228
scalar RSUExampleScenario.node[19].veinsmobility 	totalCO2Emission 	683.93947816511
scalar RSUExampleScenario.node[4].veinsmobility 	startTime 	10.1
scalar RSUExampleScenario.node[4].veinsmobility 	totalTime 	246.7
scalar RSUExampleScenario.node[4].veinsmobility 	stopTime 	256.9
scalar RSUExampleScenario.node[4].veinsmobility 	minSpeed 	1.2540441366219e-011
scalar RSUExampleScenario.node[4].veinsmobility 	maxSpeed 	22.219224402441
scalar RSUExampleScenario.node[4].veinsmobility 	totalDistance 	2493.7814903075
scalar RSUExampleScenario.node[4].veinsmobility 	totalCO2Emission 	791.97509399408
scalar RSUExampleScenario.node[22].veinsmobility 	startTime 	36.1
scalar RSUExampleScenario.node[22].veinsmobility 	totalTime 	230.4
scalar RSUExampleScenario.node[22].veinsmobility 	stopTime 	266.6
scalar RSUExampleScenario.node[22].veinsmobility 	minSpeed 	5.2359283563877e-013
scalar RSUExampleScenario.node[22].veinsmobility 	maxSpeed 	22.219990581057
scalar RSUExampleScenario.node[22].veinsmobility 	totalDistance 	2338.9298087353
scalar RSUExampleScenario.node[22].veinsmobility 	totalCO2Emission 	793.12893582211
scalar RSUExampleScenario.node[92].veinsmobility 	startTime 	139.1
scalar RSUExampleScenario.node[92].veinsmobility 	totalTime 	128.9
scalar RSUExampleScenario.node[92].veinsmobility 	stopTime 	268.1
scalar RSUExampleScenario.node[92].veinsmobility 	minSpeed 	0.25067961315438
scalar RSUExampleScenario.node[92].veinsmobility 	maxSpeed 	22.219569538271
scalar RSUExampleScenario.node[92].veinsmobility 	totalDistance 	1981.8011439248
scalar RSUExampleScenario.node[92].veinsmobility 	totalCO2Emission 	533.15404372087
scalar RSUExampleScenario.node[29].veinsmobility 	startTime 	46.1
scalar RSUExampleScenario.node[29].veinsmobility 	totalTime 	222.8
scalar RSUExampleScenario.node[29].veinsmobility 	stopTime 	269
scalar RSUExampleScenario.node[29].veinsmobility 	minSpeed 	3.1566515674182e-014
scalar RSUExampleScenario.node[29].veinsmobility 	maxSpeed 	22.219551559573
scalar RSUExampleScenario.node[29].veinsmobility 	totalDistance 	2347.8404816835
scalar RSUExampleScenario.node[29].veinsmobility 	totalCO2Emission 	792.46765648605
scalar RSUExampleScenario.node[86].veinsmobility 	startTime 	131.1
scalar RSUExampleScenario.node[86].veinsmobility 	totalTime 	139.3
scalar RSUExampleScenario.node[86].veinsmobility 	stopTime 	270.5
scalar RSUExampleScenario.node[86].veinsmobility 	minSpeed 	0.00021397282908376
scalar RSUExampleScenario.node[86].veinsmobility 	maxSpeed 	22.219913413348
scalar RSUExampleScenario.node[86].veinsmobility 	totalDistance 	1917.7583592645
scalar RSUExampleScenario.node[86].veinsmobility 	totalCO2Emission 	561.21868128022
scalar RSUExampleScenario.node[68].veinsmobility 	startTime 	110.1
scalar RSUExampleScenario.node[68].veinsmobility 	totalTime 	162.8
scalar RSUExampleScenario.node[68].veinsmobility 	stopTime 	273
scalar RSUExampleScenario.node[68].veinsmobility 	minSpeed 	0.030204980676884
scalar RSUExampleScenario.node[68].veinsmobility 	maxSpeed 	22.219107416351
scalar RSUExampleScenario.node[68].veinsmobility 	totalDistance 	2042.7677116681
scalar RSUExampleScenario.node[68].veinsmobility 	totalCO2Emission 	666.53284912845
scalar RSUExampleScenario.node[24].veinsmobility 	startTime 	38.1
scalar RSUExampleScenario.node[24].veinsmobility 	totalTime 	236.1
scalar RSUExampleScenario.node[24].veinsmobility 	stopTime 	274.3
scalar RSUExampleScenario.node[24].veinsmobility 	minSpeed 	0
scalar RSUExampleScenario.node[24].veinsmobility 	maxSpeed 	22.219621969108
scalar RSUExampleScenario.node[24].veinsmobility 	totalDistance 	2608.314051696
scalar RSUExampleScenario.node[24].veinsmobility 	totalCO2Emission 	819.01298719665
scalar RSUExampleScenario.node[114].veinsmobility 	startTime 	174.1
scalar RSUExampleScenario.node[114].veinsmobility 	totalTime 	115.7
scalar RSUExampleScenario.node[114].veinsmobility 	stopTime 	289.9
scalar RSUExampleScenario.node[114].veinsmobility 	minSpeed 	4.8008714910243e-008
scalar RSUExampleScenario.node[114].veinsmobility 	maxSpeed 	22.219544148366
scalar RSUExampleScenario.node[114].veinsmobility 	totalDistance 	1422.3363576666
scalar RSUExampleScenario.node[114].veinsmobility 	totalCO2Emission 	423.01349595737
scalar RSUExampleScenario.node[61].veinsmobility 	startTime 	96.1
scalar RSUExampleScenario.node[61].veinsmobility 	totalTime 	197.1
scalar RSUExampleScenario.node[61].veinsmobility 	stopTime 	293.3
scalar RSUExampleScenario.node[61].veinsmobility 	minSpeed 	6.9701749345445e-007
scalar RSUExampleScenario.node[61].veinsmobility 	maxSpeed 	22.219980755707
scalar RSUExampleScenario.node[61].veinsmobility 	totalDistance 	2428.288219817
scalar RSUExampleScenario.node[61].veinsmobility 	totalCO2Emission 	774.90251412995
scalar RSUExampleScenario.node[52].veinsmobility 	startTime 	82.1
scalar RSUExampleScenario.node[52].veinsmobility 	totalTime 	211.7
scalar RSUExampleScenario.node[52].veinsmobility 	stopTime 	293.9
scalar RSUExampleScenario.node[52].veinsmobility 	minSpeed 	0.25706435277546
scalar RSUExampleScenario.node[52].veinsmobility 	maxSpeed 	22.219941548256
scalar RSUExampleScenario.node[52].veinsmobility 	totalDistance 	2834.459544755
scalar RSUExampleScenario.node[52].veinsmobility 	totalCO2Emission 	724.14344121287
scalar RSUExampleScenario.node[144].veinsmobility 	startTime 	222.1
scalar RSUExampleScenario.node[144].veinsmobility 	totalTime 	75.2
scalar RSUExampleScenario.node[144].veinsmobility 	stopTime 	297.4
scalar RSUExampleScenario.node[144].veinsmobility 	minSpeed 	0.25322457453632
scalar RSUExampleScenario.node[144].veinsmobility 	maxSpeed 	22.219595683785
scalar RSUExampleScenario.node[144].veinsmobility 	totalDistance 	1242.6222038049
scalar RSUExampleScenario.node[144].veinsmobility 	totalCO2Emission 	300.53000271216
scalar RSUExampleScenario.node[10].veinsmobility 	startTime 	20.1
scalar RSUExampleScenario.node[10].veinsmobility 	totalTime 	279.3
scalar RSUExampleScenario.node[10].veinsmobility 	stopTime 	299.5
scalar RSUExampleScenario.node[10].veinsmobility 	minSpeed 	5.8555059936604e-014
scalar RSUExampleScenario.node[10].veinsmobility 	maxSpeed 	22.219960150202
scalar RSUExampleScenario.node[10].veinsmobility 	totalDistance 	2536.0474729424
scalar RSUExampleScenario.node[10].veinsmobility 	totalCO2Emission 	703.18950127882
scalar RSUExampleScenario.node[107].veinsmobility 	startTime 	163.1
scalar RSUExampleScenario.node[107].veinsmobility 	totalTime 	137.5
scalar RSUExampleScenario.node[107].veinsmobility 	stopTime 	300.7
scalar RSUExampleScenario.node[107].veinsmobility 	minSpeed 	0.25839278758597
scalar RSUExampleScenario.node[107].veinsmobility 	maxSpeed 	22.219873625175
scalar RSUExampleScenario.node[107].veinsmobility 	totalDistance 	1965.5085715461
scalar RSUExampleScenario.node[107].veinsmobility 	totalCO2Emission 	529.92531702564
scalar RSUExampleScenario.node[58].veinsmobility 	startTime 	93.1
scalar RSUExampleScenario.node[58].veinsmobility 	totalTime 	207.7
scalar RSUExampleScenario.node[58].veinsmobility 	stopTime 	300.9
scalar RSUExampleScenario.node[58].veinsmobility 	minSpeed 	5.1786642779367e-013
scalar RSUExampleScenario.node[58].veinsmobility 	maxSpeed 	22.21995088157
scalar RSUExampleScenario.node[58].veinsmobility 	totalDistance 	2430.7842064932
scalar RSUExampleScenario.node[58].veinsmobility 	totalCO2Emission 	830.41273567548
scalar RSUExampleScenario.node[102].veinsmobility 	startTime 	153.1
scalar RSUExampleScenario.node[102].veinsmobility 	totalTime 	147.9
scalar RSUExampleScenario.node[102].veinsmobility 	stopTime 	301.1
scalar RSUExampleScenario.node[102].veinsmobility 	minSpeed 	0.24922790320264
scalar RSUExampleScenario.node[102].veinsmobility 	maxSpeed 	13.019532742953
scalar RSUExampleScenario.node[102].veinsmobility 	totalDistance 	817.64382744537
scalar RSUExampleScenario.node[102].veinsmobility 	totalCO2Emission 	251.49985230161
scalar RSUExampleScenario.node[2].veinsmobility 	startTime 	7.1
scalar RSUExampleScenario.node[2].veinsmobility 	totalTime 	296.3
scalar RSUExampleScenario.node[2].veinsmobility 	stopTime 	303.5
scalar RSUExampleScenario.node[2].veinsmobility 	minSpeed 	3.1549553377781e-014
scalar RSUExampleScenario.node[2].veinsmobility 	maxSpeed 	22.219731597898
scalar RSUExampleScenario.node[2].veinsmobility 	totalDistance 	3194.1435230731
scalar RSUExampleScenario.node[2].veinsmobility 	totalCO2Emission 	993.60173912675
scalar RSUExampleScenario.node[117].veinsmobility 	startTime 	177.1
scalar RSUExampleScenario.node[117].veinsmobility 	totalTime 	130.3
scalar RSUExampleScenario.node[117].veinsmobility 	stopTime 	307.5
scalar RSUExampleScenario.node[117].veinsmobility 	minSpeed 	1.6073569141154e-012
scalar RSUExampleScenario.node[117].veinsmobility 	maxSpeed 	22.219576137569
scalar RSUExampleScenario.node[117].veinsmobility 	totalDistance 	1032.196922578
scalar RSUExampleScenario.node[117].veinsmobility 	totalCO2Emission 	385.75888812077
scalar RSUExampleScenario.node[45].veinsmobility 	startTime 	75.1
scalar RSUExampleScenario.node[45].veinsmobility 	totalTime 	234.6
scalar RSUExampleScenario.node[45].veinsmobility 	stopTime 	309.8
scalar RSUExampleScenario.node[45].veinsmobility 	minSpeed 	1.3416149452462e-013
scalar RSUExampleScenario.node[45].veinsmobility 	maxSpeed 	22.218407292312
scalar RSUExampleScenario.node[45].veinsmobility 	totalDistance 	1470.6342778979
scalar RSUExampleScenario.node[45].veinsmobility 	totalCO2Emission 	510.8595010328
scalar RSUExampleScenario.node[95].veinsmobility 	startTime 	143.1
scalar RSUExampleScenario.node[95].veinsmobility 	totalTime 	168.9
scalar RSUExampleScenario.node[95].veinsmobility 	stopTime 	312.1
scalar RSUExampleScenario.node[95].veinsmobility 	minSpeed 	0.064637427083051
scalar RSUExampleScenario.node[95].veinsmobility 	maxSpeed 	22.219979404726
scalar RSUExampleScenario.node[95].veinsmobility 	totalDistance 	2133.8984907157
scalar RSUExampleScenario.node[95].veinsmobility 	totalCO2Emission 	576.04145094519
scalar RSUExampleScenario.node[122].veinsmobility 	startTime 	183.1
scalar RSUExampleScenario.node[122].veinsmobility 	totalTime 	131.5
scalar RSUExampleScenario.node[122].veinsmobility 	stopTime 	314.7
scalar RSUExampleScenario.node[122].veinsmobility 	minSpeed 	0.24870014140452
scalar RSUExampleScenario.node[122].veinsmobility 	maxSpeed 	22.219962918027
scalar RSUExampleScenario.node[122].veinsmobility 	totalDistance 	2169.2644292134
scalar RSUExampleScenario.node[122].veinsmobility 	totalCO2Emission 	570.22113619548
scalar RSUExampleScenario.node[179].veinsmobility 	startTime 	272.1
scalar RSUExampleScenario.node[179].veinsmobility 	totalTime 	46.5
scalar RSUExampleScenario.node[179].veinsmobility 	stopTime 	318.7
scalar RSUExampleScenario.node[179].veinsmobility 	minSpeed 	0.25162726903916
scalar RSUExampleScenario.node[179].veinsmobility 	maxSpeed 	22.212213025487
scalar RSUExampleScenario.node[179].veinsmobility 	totalDistance 	375.07148899531
scalar RSUExampleScenario.node[179].veinsmobility 	totalCO2Emission 	172.89084924035
scalar RSUExampleScenario.node[69].veinsmobility 	startTime 	111.1
scalar RSUExampleScenario.node[69].veinsmobility 	totalTime 	208.2
scalar RSUExampleScenario.node[69].veinsmobility 	stopTime 	319.4
scalar RSUExampleScenario.node[69].veinsmobility 	minSpeed 	2.0979570090132e-013
scalar RSUExampleScenario.node[69].veinsmobility 	maxSpeed 	22.219985233825
scalar RSUExampleScenario.node[69].veinsmobility 	totalDistance 	2050.8132836237
scalar RSUExampleScenario.node[69].veinsmobility 	totalCO2Emission 	666.00694140057
scalar RSUExampleScenario.node[164].veinsmobility 	startTime 	254.1
scalar RSUExampleScenario.node[164].veinsmobility 	totalTime 	65.7
scalar RSUExampleScenario.node[164].veinsmobility 	stopTime 	319.9
scalar RSUExampleScenario.node[164].veinsmobility 	minSpeed 	0.25633400873072
scalar RSUExampleScenario.node[164].veinsmobility 	maxSpeed 	22.217647306859
scalar RSUExampleScenario.node[164].veinsmobility 	totalDistance 	925.38203903905
scalar RSUExampleScenario.node[164].veinsmobility 	totalCO2Emission 	321.00571377418
scalar RSUExampleScenario.node[13].veinsmobility 	startTime 	25.1
scalar RSUExampleScenario.node[13].veinsmobility 	totalTime 	298.6
scalar RSUExampleScenario.node[13].veinsmobility 	stopTime 	323.8
scalar RSUExampleScenario.node[13].veinsmobility 	minSpeed 	2.0065640941988e-015
scalar RSUExampleScenario.node[13].veinsmobility 	maxSpeed 	22.219947421153
scalar RSUExampleScenario.node[13].veinsmobility 	totalDistance 	3014.6590744198
scalar RSUExampleScenario.node[13].veinsmobility 	totalCO2Emission 	911.50425729187
scalar RSUExampleScenario.node[27].veinsmobility 	startTime 	42.1
scalar RSUExampleScenario.node[27].veinsmobility 	totalTime 	282.6
scalar RSUExampleScenario.node[27].veinsmobility 	stopTime 	324.8
scalar RSUExampleScenario.node[27].veinsmobility 	minSpeed 	9.7414326174296e-016
scalar RSUExampleScenario.node[27].veinsmobility 	maxSpeed 	22.219161465557
scalar RSUExampleScenario.node[27].veinsmobility 	totalDistance 	1536.8301897003
scalar RSUExampleScenario.node[27].veinsmobility 	totalCO2Emission 	619.71974289347
scalar RSUExampleScenario.node[124].veinsmobility 	startTime 	185.1
scalar RSUExampleScenario.node[124].veinsmobility 	totalTime 	139.7
scalar RSUExampleScenario.node[124].veinsmobility 	stopTime 	324.9
scalar RSUExampleScenario.node[124].veinsmobility 	minSpeed 	2.0082782743138e-015
scalar RSUExampleScenario.node[124].veinsmobility 	maxSpeed 	17.08816684482
scalar RSUExampleScenario.node[124].veinsmobility 	totalDistance 	790.86697846463
scalar RSUExampleScenario.node[124].veinsmobility 	totalCO2Emission 	329.47515593355
scalar RSUExampleScenario.node[154].veinsmobility 	startTime 	240.1
scalar RSUExampleScenario.node[154].veinsmobility 	totalTime 	86.3
scalar RSUExampleScenario.node[154].veinsmobility 	stopTime 	326.5
scalar RSUExampleScenario.node[154].veinsmobility 	minSpeed 	0.25918930093898
scalar RSUExampleScenario.node[154].veinsmobility 	maxSpeed 	22.219171311762
scalar RSUExampleScenario.node[154].veinsmobility 	totalDistance 	1237.2538623364
scalar RSUExampleScenario.node[154].veinsmobility 	totalCO2Emission 	370.98660346013
scalar RSUExampleScenario.node[127].veinsmobility 	startTime 	192.1
scalar RSUExampleScenario.node[127].veinsmobility 	totalTime 	135.4
scalar RSUExampleScenario.node[127].veinsmobility 	stopTime 	327.6
scalar RSUExampleScenario.node[127].veinsmobility 	minSpeed 	0.0016655058071771
scalar RSUExampleScenario.node[127].veinsmobility 	maxSpeed 	22.21884895931
scalar RSUExampleScenario.node[127].veinsmobility 	totalDistance 	1665.5409569647
scalar RSUExampleScenario.node[127].veinsmobility 	totalCO2Emission 	495.19725702072
scalar RSUExampleScenario.node[145].veinsmobility 	startTime 	222.1
scalar RSUExampleScenario.node[145].veinsmobility 	totalTime 	106.7
scalar RSUExampleScenario.node[145].veinsmobility 	stopTime 	328.9
scalar RSUExampleScenario.node[145].veinsmobility 	minSpeed 	4.0765246181504e-005
scalar RSUExampleScenario.node[145].veinsmobility 	maxSpeed 	22.218604147802
scalar RSUExampleScenario.node[145].veinsmobility 	totalDistance 	1443.6901716085
scalar RSUExampleScenario.node[145].veinsmobility 	totalCO2Emission 	397.59285389789
scalar RSUExampleScenario.node[146].veinsmobility 	startTime 	225.1
scalar RSUExampleScenario.node[146].veinsmobility 	totalTime 	105.5
scalar RSUExampleScenario.node[146].veinsmobility 	stopTime 	330.7
scalar RSUExampleScenario.node[146].veinsmobility 	minSpeed 	0.25210815260443
scalar RSUExampleScenario.node[146].veinsmobility 	maxSpeed 	22.208626662784
scalar RSUExampleScenario.node[146].veinsmobility 	totalDistance 	954.31064771578
scalar RSUExampleScenario.node[146].veinsmobility 	totalCO2Emission 	308.14067349802
scalar RSUExampleScenario.node[65].veinsmobility 	startTime 	105.1
scalar RSUExampleScenario.node[65].veinsmobility 	totalTime 	226.3
scalar RSUExampleScenario.node[65].veinsmobility 	stopTime 	331.5
scalar RSUExampleScenario.node[65].veinsmobility 	minSpeed 	8.8273472873225e-010
scalar RSUExampleScenario.node[65].veinsmobility 	maxSpeed 	22.219921111434
scalar RSUExampleScenario.node[65].veinsmobility 	totalDistance 	2603.4558349907
scalar RSUExampleScenario.node[65].veinsmobility 	totalCO2Emission 	668.03604101558
scalar RSUExampleScenario.node[177].veinsmobility 	startTime 	270.1
scalar RSUExampleScenario.node[177].veinsmobility 	totalTime 	65
scalar RSUExampleScenario.node[177].veinsmobility 	stopTime 	335.2
scalar RSUExampleScenario.node[177].veinsmobility 	minSpeed 	0.24911645185272
scalar RSUExampleScenario.node[177].veinsmobility 	maxSpeed 	22.200935662568
scalar RSUExampleScenario.node[177].veinsmobility 	totalDistance 	637.1032267999
scalar RSUExampleScenario.node[177].veinsmobility 	totalCO2Emission 	257.1686335352
scalar RSUExampleScenario.node[75].veinsmobility 	startTime 	119.1
scalar RSUExampleScenario.node[75].veinsmobility 	totalTime 	216.8
scalar RSUExampleScenario.node[75].veinsmobility 	stopTime 	336
scalar RSUExampleScenario.node[75].veinsmobility 	minSpeed 	1.1254937816295e-013
scalar RSUExampleScenario.node[75].veinsmobility 	maxSpeed 	22.219746571924
scalar RSUExampleScenario.node[75].veinsmobility 	totalDistance 	1514.8815122734
scalar RSUExampleScenario.node[75].veinsmobility 	totalCO2Emission 	578.78950238657
scalar RSUExampleScenario.node[94].veinsmobility 	startTime 	141.1
scalar RSUExampleScenario.node[94].veinsmobility 	totalTime 	195.3
scalar RSUExampleScenario.node[94].veinsmobility 	stopTime 	336.5
scalar RSUExampleScenario.node[94].veinsmobility 	minSpeed 	0.001387908403529
scalar RSUExampleScenario.node[94].veinsmobility 	maxSpeed 	22.219388708831
scalar RSUExampleScenario.node[94].veinsmobility 	totalDistance 	2372.2841491467
scalar RSUExampleScenario.node[94].veinsmobility 	totalCO2Emission 	773.39657171422
scalar RSUExampleScenario.node[87].veinsmobility 	startTime 	132.1
scalar RSUExampleScenario.node[87].veinsmobility 	totalTime 	205.5
scalar RSUExampleScenario.node[87].veinsmobility 	stopTime 	337.7
scalar RSUExampleScenario.node[87].veinsmobility 	minSpeed 	2.8621918072339e-015
scalar RSUExampleScenario.node[87].veinsmobility 	maxSpeed 	22.21983757758
scalar RSUExampleScenario.node[87].veinsmobility 	totalDistance 	1431.1505452281
scalar RSUExampleScenario.node[87].veinsmobility 	totalCO2Emission 	581.87997143226
scalar RSUExampleScenario.node[39].veinsmobility 	startTime 	66.1
scalar RSUExampleScenario.node[39].veinsmobility 	totalTime 	272.6
scalar RSUExampleScenario.node[39].veinsmobility 	stopTime 	338.8
scalar RSUExampleScenario.node[39].veinsmobility 	minSpeed 	5.0629400728249e-006
scalar RSUExampleScenario.node[39].veinsmobility 	maxSpeed 	22.219875641265
scalar RSUExampleScenario.node[39].veinsmobility 	totalDistance 	2689.4776672177
scalar RSUExampleScenario.node[39].veinsmobility 	totalCO2Emission 	791.4878071517
scalar RSUExampleScenario.node[118].veinsmobility 	startTime 	178.1
scalar RSUExampleScenario.node[118].veinsmobility 	totalTime 	161.5
scalar RSUExampleScenario.node[118].veinsmobility 	stopTime 	339.7
scalar RSUExampleScenario.node[118].veinsmobility 	minSpeed 	4.5074259850877e-014
scalar RSUExampleScenario.node[118].veinsmobility 	maxSpeed 	22.219770119537
scalar RSUExampleScenario.node[118].veinsmobility 	totalDistance 	1619.9730039267
scalar RSUExampleScenario.node[118].veinsmobility 	totalCO2Emission 	559.29271957236
scalar RSUExampleScenario.node[23].veinsmobility 	startTime 	37.1
scalar RSUExampleScenario.node[23].veinsmobility 	totalTime 	302.7
scalar RSUExampleScenario.node[23].veinsmobility 	stopTime 	339.9
scalar RSUExampleScenario.node[23].veinsmobility 	minSpeed 	9.607524868371e-016
scalar RSUExampleScenario.node[23].veinsmobility 	maxSpeed 	22.219936174387
scalar RSUExampleScenario.node[23].veinsmobility 	totalDistance 	1988.1211612332
scalar RSUExampleScenario.node[23].veinsmobility 	totalCO2Emission 	671.56405678644
scalar RSUExampleScenario.node[136].veinsmobility 	startTime 	206.1
scalar RSUExampleScenario.node[136].veinsmobility 	totalTime 	135.4
scalar RSUExampleScenario.node[136].veinsmobility 	stopTime 	341.6
scalar RSUExampleScenario.node[136].veinsmobility 	minSpeed 	4.3420476143365e-007
scalar RSUExampleScenario.node[136].veinsmobility 	maxSpeed 	22.213788520286
scalar RSUExampleScenario.node[136].veinsmobility 	totalDistance 	1114.4195962026
scalar RSUExampleScenario.node[136].veinsmobility 	totalCO2Emission 	465.62924286425
scalar RSUExampleScenario.node[150].veinsmobility 	startTime 	231.1
scalar RSUExampleScenario.node[150].veinsmobility 	totalTime 	111.3
scalar RSUExampleScenario.node[150].veinsmobility 	stopTime 	342.5
scalar RSUExampleScenario.node[150].veinsmobility 	minSpeed 	0.020981135142978
scalar RSUExampleScenario.node[150].veinsmobility 	maxSpeed 	22.219580600553
scalar RSUExampleScenario.node[150].veinsmobility 	totalDistance 	1221.8895149387
scalar RSUExampleScenario.node[150].veinsmobility 	totalCO2Emission 	424.3760066301
scalar RSUExampleScenario.node[51].veinsmobility 	startTime 	81.1
scalar RSUExampleScenario.node[51].veinsmobility 	totalTime 	266.7
scalar RSUExampleScenario.node[51].veinsmobility 	stopTime 	347.9
scalar RSUExampleScenario.node[51].veinsmobility 	minSpeed 	1.279757962083e-007
scalar RSUExampleScenario.node[51].veinsmobility 	maxSpeed 	22.219972567945
scalar RSUExampleScenario.node[51].veinsmobility 	totalDistance 	3525.1168223593
scalar RSUExampleScenario.node[51].veinsmobility 	totalCO2Emission 	885.46297276341
scalar RSUExampleScenario.node[66].veinsmobility 	startTime 	107.1
scalar RSUExampleScenario.node[66].veinsmobility 	totalTime 	242.6
scalar RSUExampleScenario.node[66].veinsmobility 	stopTime 	349.8
scalar RSUExampleScenario.node[66].veinsmobility 	minSpeed 	6.9443270441533e-009
scalar RSUExampleScenario.node[66].veinsmobility 	maxSpeed 	22.219573483581
scalar RSUExampleScenario.node[66].veinsmobility 	totalDistance 	2765.5627501513
scalar RSUExampleScenario.node[66].veinsmobility 	totalCO2Emission 	861.95145104426
scalar RSUExampleScenario.node[55].veinsmobility 	startTime 	88.1
scalar RSUExampleScenario.node[55].veinsmobility 	totalTime 	262.3
scalar RSUExampleScenario.node[55].veinsmobility 	stopTime 	350.5
scalar RSUExampleScenario.node[55].veinsmobility 	minSpeed 	5.8843914591607e-014
scalar RSUExampleScenario.node[55].veinsmobility 	maxSpeed 	22.219514313245
scalar RSUExampleScenario.node[55].veinsmobility 	totalDistance 	3068.2673828196
scalar RSUExampleScenario.node[55].veinsmobility 	totalCO2Emission 	932.12964959106
scalar RSUExampleScenario.node[187].veinsmobility 	startTime 	287.1
scalar RSUExampleScenario.node[187].veinsmobility 	totalTime 	63.6
scalar RSUExampleScenario.node[187].veinsmobility 	stopTime 	350.8
scalar RSUExampleScenario.node[187].veinsmobility 	minSpeed 	0.25561897251895
scalar RSUExampleScenario.node[187].veinsmobility 	maxSpeed 	17.754958939265
scalar RSUExampleScenario.node[187].veinsmobility 	totalDistance 	652.120044764
scalar RSUExampleScenario.node[187].veinsmobility 	totalCO2Emission 	222.29884539412
scalar RSUExampleScenario.node[78].veinsmobility 	startTime 	122.3
scalar RSUExampleScenario.node[78].veinsmobility 	totalTime 	229.8
scalar RSUExampleScenario.node[78].veinsmobility 	stopTime 	352.2
scalar RSUExampleScenario.node[78].veinsmobility 	minSpeed 	3.7924347525347e-012
scalar RSUExampleScenario.node[78].veinsmobility 	maxSpeed 	22.219242481145
scalar RSUExampleScenario.node[78].veinsmobility 	totalDistance 	2058.0548778134
scalar RSUExampleScenario.node[78].veinsmobility 	totalCO2Emission 	635.24287404328
scalar RSUExampleScenario.node[35].veinsmobility 	startTime 	56.1
scalar RSUExampleScenario.node[35].veinsmobility 	totalTime 	298.8
scalar RSUExampleScenario.node[35].veinsmobility 	stopTime 	355
scalar RSUExampleScenario.node[35].veinsmobility 	minSpeed 	0.00058412795747424
scalar RSUExampleScenario.node[35].veinsmobility 	maxSpeed 	22.219889378147
scalar RSUExampleScenario.node[35].veinsmobility 	totalDistance 	4773.3271419895
scalar RSUExampleScenario.node[35].veinsmobility 	totalCO2Emission 	1169.2607959919
scalar RSUExampleScenario.node[142].veinsmobility 	startTime 	218.1
scalar RSUExampleScenario.node[142].veinsmobility 	totalTime 	138.5
scalar RSUExampleScenario.node[142].veinsmobility 	stopTime 	356.7
scalar RSUExampleScenario.node[142].veinsmobility 	minSpeed 	0.24739911786723
scalar RSUExampleScenario.node[142].veinsmobility 	maxSpeed 	22.219201721612
scalar RSUExampleScenario.node[142].veinsmobility 	totalDistance 	1785.5560617617
scalar RSUExampleScenario.node[142].veinsmobility 	totalCO2Emission 	531.16507785955
scalar RSUExampleScenario.node[53].veinsmobility 	startTime 	83.1
scalar RSUExampleScenario.node[53].veinsmobility 	totalTime 	274.5
scalar RSUExampleScenario.node[53].veinsmobility 	stopTime 	357.7
scalar RSUExampleScenario.node[53].veinsmobility 	minSpeed 	5.8701111525886e-014
scalar RSUExampleScenario.node[53].veinsmobility 	maxSpeed 	22.219834440576
scalar RSUExampleScenario.node[53].veinsmobility 	totalDistance 	3347.572703976
scalar RSUExampleScenario.node[53].veinsmobility 	totalCO2Emission 	922.7406089674
scalar RSUExampleScenario.node[110].veinsmobility 	startTime 	168.1
scalar RSUExampleScenario.node[110].veinsmobility 	totalTime 	190.8
scalar RSUExampleScenario.node[110].veinsmobility 	stopTime 	359
scalar RSUExampleScenario.node[110].veinsmobility 	minSpeed 	0
scalar RSUExampleScenario.node[110].veinsmobility 	maxSpeed 	22.219773537307
scalar RSUExampleScenario.node[110].veinsmobility 	totalDistance 	1516.041839693
scalar RSUExampleScenario.node[110].veinsmobility 	totalCO2Emission 	546.84562045509
scalar RSUExampleScenario.node[64].veinsmobility 	startTime 	103.1
scalar RSUExampleScenario.node[64].veinsmobility 	totalTime 	259.5
scalar RSUExampleScenario.node[64].veinsmobility 	stopTime 	362.7
scalar RSUExampleScenario.node[64].veinsmobility 	minSpeed 	2.4755541510346e-013
scalar RSUExampleScenario.node[64].veinsmobility 	maxSpeed 	22.219879638334
scalar RSUExampleScenario.node[64].veinsmobility 	totalDistance 	2859.8893620628
scalar RSUExampleScenario.node[64].veinsmobility 	totalCO2Emission 	902.59498647174
scalar RSUExampleScenario.node[162].veinsmobility 	startTime 	253.1
scalar RSUExampleScenario.node[162].veinsmobility 	totalTime 	110
scalar RSUExampleScenario.node[162].veinsmobility 	stopTime 	363.2
scalar RSUExampleScenario.node[162].veinsmobility 	minSpeed 	3.1582564298733e-014
scalar RSUExampleScenario.node[162].veinsmobility 	maxSpeed 	22.219253586316
scalar RSUExampleScenario.node[162].veinsmobility 	totalDistance 	1028.9005802412
scalar RSUExampleScenario.node[162].veinsmobility 	totalCO2Emission 	400.47610729424
scalar RSUExampleScenario.node[63].veinsmobility 	startTime 	100.1
scalar RSUExampleScenario.node[63].veinsmobility 	totalTime 	266.6
scalar RSUExampleScenario.node[63].veinsmobility 	stopTime 	366.8
scalar RSUExampleScenario.node[63].veinsmobility 	minSpeed 	0.10502063193004
scalar RSUExampleScenario.node[63].veinsmobility 	maxSpeed 	22.219885582421
scalar RSUExampleScenario.node[63].veinsmobility 	totalDistance 	3778.0839289746
scalar RSUExampleScenario.node[63].veinsmobility 	totalCO2Emission 	878.65150815969
scalar RSUExampleScenario.node[108].veinsmobility 	startTime 	164.1
scalar RSUExampleScenario.node[108].veinsmobility 	totalTime 	204
scalar RSUExampleScenario.node[108].veinsmobility 	stopTime 	368.2
scalar RSUExampleScenario.node[108].veinsmobility 	minSpeed 	0.0031754665272163
scalar RSUExampleScenario.node[108].veinsmobility 	maxSpeed 	22.219810682691
scalar RSUExampleScenario.node[108].veinsmobility 	totalDistance 	2487.7246633842
scalar RSUExampleScenario.node[108].veinsmobility 	totalCO2Emission 	725.10583434908
scalar RSUExampleScenario.node[141].veinsmobility 	startTime 	217.1
scalar RSUExampleScenario.node[141].veinsmobility 	totalTime 	154.3
scalar RSUExampleScenario.node[141].veinsmobility 	stopTime 	371.5
scalar RSUExampleScenario.node[141].veinsmobility 	minSpeed 	6.5656767439043e-007
scalar RSUExampleScenario.node[141].veinsmobility 	maxSpeed 	22.21979303349
scalar RSUExampleScenario.node[141].veinsmobility 	totalDistance 	1548.7621359912
scalar RSUExampleScenario.node[141].veinsmobility 	totalCO2Emission 	506.75929398914
scalar RSUExampleScenario.node[169].veinsmobility 	startTime 	260.1
scalar RSUExampleScenario.node[169].veinsmobility 	totalTime 	116.9
scalar RSUExampleScenario.node[169].veinsmobility 	stopTime 	377.1
scalar RSUExampleScenario.node[169].veinsmobility 	minSpeed 	0
scalar RSUExampleScenario.node[169].veinsmobility 	maxSpeed 	16.025116083119
scalar RSUExampleScenario.node[169].veinsmobility 	totalDistance 	696.99836549736
scalar RSUExampleScenario.node[169].veinsmobility 	totalCO2Emission 	280.35699420285
scalar RSUExampleScenario.node[129].veinsmobility 	startTime 	194.1
scalar RSUExampleScenario.node[129].veinsmobility 	totalTime 	183.2
scalar RSUExampleScenario.node[129].veinsmobility 	stopTime 	377.4
scalar RSUExampleScenario.node[129].veinsmobility 	minSpeed 	4.4144806552788e-009
scalar RSUExampleScenario.node[129].veinsmobility 	maxSpeed 	22.219946406994
scalar RSUExampleScenario.node[129].veinsmobility 	totalDistance 	2635.8127226678
scalar RSUExampleScenario.node[129].veinsmobility 	totalCO2Emission 	693.49417129011
scalar RSUExampleScenario.node[123].veinsmobility 	startTime 	184.1
scalar RSUExampleScenario.node[123].veinsmobility 	totalTime 	195.9
scalar RSUExampleScenario.node[123].veinsmobility 	stopTime 	380.1
scalar RSUExampleScenario.node[123].veinsmobility 	minSpeed 	7.9208456567382e-015
scalar RSUExampleScenario.node[123].veinsmobility 	maxSpeed 	22.21948443593
scalar RSUExampleScenario.node[123].veinsmobility 	totalDistance 	2160.015872639
scalar RSUExampleScenario.node[123].veinsmobility 	totalCO2Emission 	706.44675087656
scalar RSUExampleScenario.node[67].veinsmobility 	startTime 	109.1
scalar RSUExampleScenario.node[67].veinsmobility 	totalTime 	272.8
scalar RSUExampleScenario.node[67].veinsmobility 	stopTime 	382
scalar RSUExampleScenario.node[67].veinsmobility 	minSpeed 	1.1255978114144e-013
scalar RSUExampleScenario.node[67].veinsmobility 	maxSpeed 	22.218497675236
scalar RSUExampleScenario.node[67].veinsmobility 	totalDistance 	1894.8229428922
scalar RSUExampleScenario.node[67].veinsmobility 	totalCO2Emission 	700.15905523565
scalar RSUExampleScenario.node[130].veinsmobility 	startTime 	197.6
scalar RSUExampleScenario.node[130].veinsmobility 	totalTime 	184.3
scalar RSUExampleScenario.node[130].veinsmobility 	stopTime 	382
scalar RSUExampleScenario.node[130].veinsmobility 	minSpeed 	0
scalar RSUExampleScenario.node[130].veinsmobility 	maxSpeed 	22.21987098614
scalar RSUExampleScenario.node[130].veinsmobility 	totalDistance 	1387.8325120243
scalar RSUExampleScenario.node[130].veinsmobility 	totalCO2Emission 	578.72513547059
scalar RSUExampleScenario.node[44].veinsmobility 	startTime 	73.1
scalar RSUExampleScenario.node[44].veinsmobility 	totalTime 	309.4
scalar RSUExampleScenario.node[44].veinsmobility 	stopTime 	382.6
scalar RSUExampleScenario.node[44].veinsmobility 	minSpeed 	0.14355672095142
scalar RSUExampleScenario.node[44].veinsmobility 	maxSpeed 	22.219879790854
scalar RSUExampleScenario.node[44].veinsmobility 	totalDistance 	3591.9221512105
scalar RSUExampleScenario.node[44].veinsmobility 	totalCO2Emission 	860.58006048216
scalar RSUExampleScenario.node[148].veinsmobility 	startTime 	228.1
scalar RSUExampleScenario.node[148].veinsmobility 	totalTime 	155
scalar RSUExampleScenario.node[148].veinsmobility 	stopTime 	383.2
scalar RSUExampleScenario.node[148].veinsmobility 	minSpeed 	8.2011309538004e-007
scalar RSUExampleScenario.node[148].veinsmobility 	maxSpeed 	22.218966687873
scalar RSUExampleScenario.node[148].veinsmobility 	totalDistance 	1432.077365711
scalar RSUExampleScenario.node[148].veinsmobility 	totalCO2Emission 	403.98909221554
scalar RSUExampleScenario.node[121].veinsmobility 	startTime 	182.4
scalar RSUExampleScenario.node[121].veinsmobility 	totalTime 	201.1
scalar RSUExampleScenario.node[121].veinsmobility 	stopTime 	383.6
scalar RSUExampleScenario.node[121].veinsmobility 	minSpeed 	0.25135640705819
scalar RSUExampleScenario.node[121].veinsmobility 	maxSpeed 	22.219616733715
scalar RSUExampleScenario.node[121].veinsmobility 	totalDistance 	2257.2431544074
scalar RSUExampleScenario.node[121].veinsmobility 	totalCO2Emission 	572.2319698882
scalar RSUExampleScenario.node[90].veinsmobility 	startTime 	136.1
scalar RSUExampleScenario.node[90].veinsmobility 	totalTime 	248.1
scalar RSUExampleScenario.node[90].veinsmobility 	stopTime 	384.3
scalar RSUExampleScenario.node[90].veinsmobility 	minSpeed 	1.1256476960837e-013
scalar RSUExampleScenario.node[90].veinsmobility 	maxSpeed 	22.21867255853
scalar RSUExampleScenario.node[90].veinsmobility 	totalDistance 	1682.5804392145
scalar RSUExampleScenario.node[90].veinsmobility 	totalCO2Emission 	630.80409468934
scalar RSUExampleScenario.node[111].veinsmobility 	startTime 	169.1
scalar RSUExampleScenario.node[111].veinsmobility 	totalTime 	215.5
scalar RSUExampleScenario.node[111].veinsmobility 	stopTime 	384.7
scalar RSUExampleScenario.node[111].veinsmobility 	minSpeed 	4.3284524966828e-010
scalar RSUExampleScenario.node[111].veinsmobility 	maxSpeed 	22.21973999351
scalar RSUExampleScenario.node[111].veinsmobility 	totalDistance 	2970.4320065741
scalar RSUExampleScenario.node[111].veinsmobility 	totalCO2Emission 	798.42459924794
scalar RSUExampleScenario.node[183].veinsmobility 	startTime 	279.1
scalar RSUExampleScenario.node[183].veinsmobility 	totalTime 	106
scalar RSUExampleScenario.node[183].veinsmobility 	stopTime 	385.2
scalar RSUExampleScenario.node[183].veinsmobility 	minSpeed 	0.25037011309946
scalar RSUExampleScenario.node[183].veinsmobility 	maxSpeed 	22.219684203654
scalar RSUExampleScenario.node[183].veinsmobility 	totalDistance 	1231.8377642917
scalar RSUExampleScenario.node[183].veinsmobility 	totalCO2Emission 	402.73954402536
scalar RSUExampleScenario.node[20].veinsmobility 	startTime 	34.1
scalar RSUExampleScenario.node[20].veinsmobility 	totalTime 	351.8
scalar RSUExampleScenario.node[20].veinsmobility 	stopTime 	386
scalar RSUExampleScenario.node[20].veinsmobility 	minSpeed 	4.0147570435528e-013
scalar RSUExampleScenario.node[20].veinsmobility 	maxSpeed 	22.219816775515
scalar RSUExampleScenario.node[20].veinsmobility 	totalDistance 	3583.7816237177
scalar RSUExampleScenario.node[20].veinsmobility 	totalCO2Emission 	1201.0119052415
scalar RSUExampleScenario.node[74].veinsmobility 	startTime 	118.1
scalar RSUExampleScenario.node[74].veinsmobility 	totalTime 	273.7
scalar RSUExampleScenario.node[74].veinsmobility 	stopTime 	391.9
scalar RSUExampleScenario.node[74].veinsmobility 	minSpeed 	6.5630647561083e-011
scalar RSUExampleScenario.node[74].veinsmobility 	maxSpeed 	22.219630400043
scalar RSUExampleScenario.node[74].veinsmobility 	totalDistance 	2989.4163828391
scalar RSUExampleScenario.node[74].veinsmobility 	totalCO2Emission 	971.0689275841
scalar RSUExampleScenario.node[132].veinsmobility 	startTime 	201.1
scalar RSUExampleScenario.node[132].veinsmobility 	totalTime 	193.2
scalar RSUExampleScenario.node[132].veinsmobility 	stopTime 	394.4
scalar RSUExampleScenario.node[132].veinsmobility 	minSpeed 	3.7298715435038e-015
scalar RSUExampleScenario.node[132].veinsmobility 	maxSpeed 	22.219107547775
scalar RSUExampleScenario.node[132].veinsmobility 	totalDistance 	1385.795551908
scalar RSUExampleScenario.node[132].veinsmobility 	totalCO2Emission 	545.53058057412
scalar RSUExampleScenario.node[89].veinsmobility 	startTime 	135.1
scalar RSUExampleScenario.node[89].veinsmobility 	totalTime 	260.1
scalar RSUExampleScenario.node[89].veinsmobility 	stopTime 	395.3
scalar RSUExampleScenario.node[89].veinsmobility 	minSpeed 	9.501310667679e-016
scalar RSUExampleScenario.node[89].veinsmobility 	maxSpeed 	22.219885615867
scalar RSUExampleScenario.node[89].veinsmobility 	totalDistance 	2210.5563174628
scalar RSUExampleScenario.node[89].veinsmobility 	totalCO2Emission 	732.21505102364
scalar RSUExampleScenario.node[103].veinsmobility 	startTime 	155.1
scalar RSUExampleScenario.node[103].veinsmobility 	totalTime 	243.3
scalar RSUExampleScenario.node[103].veinsmobility 	stopTime 	398.5
scalar RSUExampleScenario.node[103].veinsmobility 	minSpeed 	0
scalar RSUExampleScenario.node[103].veinsmobility 	maxSpeed 	22.219985911525
scalar RSUExampleScenario.node[103].veinsmobility 	totalDistance 	1632.1003547958
scalar RSUExampleScenario.node[103].veinsmobility 	totalCO2Emission 	674.55187392746
scalar RSUExampleScenario.node[156].veinsmobility 	startTime 	242.1
scalar RSUExampleScenario.node[156].veinsmobility 	totalTime 	159.1
scalar RSUExampleScenario.node[156].veinsmobility 	stopTime 	401.3
scalar RSUExampleScenario.node[156].veinsmobility 	minSpeed 	5.8856399152163e-014
scalar RSUExampleScenario.node[156].veinsmobility 	maxSpeed 	22.219970844304
scalar RSUExampleScenario.node[156].veinsmobility 	totalDistance 	1705.0472132235
scalar RSUExampleScenario.node[156].veinsmobility 	totalCO2Emission 	509.81317716637
scalar RSUExampleScenario.node[126].veinsmobility 	startTime 	187.1
scalar RSUExampleScenario.node[126].veinsmobility 	totalTime 	214.4
scalar RSUExampleScenario.node[126].veinsmobility 	stopTime 	401.6
scalar RSUExampleScenario.node[126].veinsmobility 	minSpeed 	0.2575769449987
scalar RSUExampleScenario.node[126].veinsmobility 	maxSpeed 	22.219979638667
scalar RSUExampleScenario.node[126].veinsmobility 	totalDistance 	2238.7582804456
scalar RSUExampleScenario.node[126].veinsmobility 	totalCO2Emission 	609.55774943425
scalar RSUExampleScenario.node[47].veinsmobility 	startTime 	77.1
scalar RSUExampleScenario.node[47].veinsmobility 	totalTime 	329.5
scalar RSUExampleScenario.node[47].veinsmobility 	stopTime 	406.7
scalar RSUExampleScenario.node[47].veinsmobility 	minSpeed 	7.8333778260609e-010
scalar RSUExampleScenario.node[47].veinsmobility 	maxSpeed 	22.219385938735
scalar RSUExampleScenario.node[47].veinsmobility 	totalDistance 	2973.903563549
scalar RSUExampleScenario.node[47].veinsmobility 	totalCO2Emission 	919.26358177205
scalar RSUExampleScenario.node[59].veinsmobility 	startTime 	94.1
scalar RSUExampleScenario.node[59].veinsmobility 	totalTime 	312.6
scalar RSUExampleScenario.node[59].veinsmobility 	stopTime 	406.8
scalar RSUExampleScenario.node[59].veinsmobility 	minSpeed 	0.25959876975743
scalar RSUExampleScenario.node[59].veinsmobility 	maxSpeed 	22.219980108002
scalar RSUExampleScenario.node[59].veinsmobility 	totalDistance 	4484.8955137869
scalar RSUExampleScenario.node[59].veinsmobility 	totalCO2Emission 	1195.9340583697
scalar RSUExampleScenario.node[215].veinsmobility 	startTime 	342.1
scalar RSUExampleScenario.node[215].veinsmobility 	totalTime 	67
scalar RSUExampleScenario.node[215].veinsmobility 	stopTime 	409.2
scalar RSUExampleScenario.node[215].veinsmobility 	minSpeed 	0.25837255899911
scalar RSUExampleScenario.node[215].veinsmobility 	maxSpeed 	22.219991202005
scalar RSUExampleScenario.node[215].veinsmobility 	totalDistance 	1130.1089463315
scalar RSUExampleScenario.node[215].veinsmobility 	totalCO2Emission 	296.62168541337
scalar RSUExampleScenario.node[224].veinsmobility 	startTime 	361.6
scalar RSUExampleScenario.node[224].veinsmobility 	totalTime 	47.7
scalar RSUExampleScenario.node[224].veinsmobility 	stopTime 	409.4
scalar RSUExampleScenario.node[224].veinsmobility 	minSpeed 	0.25918206356443
scalar RSUExampleScenario.node[224].veinsmobility 	maxSpeed 	20.884474948698
scalar RSUExampleScenario.node[224].veinsmobility 	totalDistance 	448.47859591018
scalar RSUExampleScenario.node[224].veinsmobility 	totalCO2Emission 	210.5579425441
scalar RSUExampleScenario.node[191].veinsmobility 	startTime 	292.1
scalar RSUExampleScenario.node[191].veinsmobility 	totalTime 	118.7
scalar RSUExampleScenario.node[191].veinsmobility 	stopTime 	410.9
scalar RSUExampleScenario.node[191].veinsmobility 	minSpeed 	1.9109758156656e-008
scalar RSUExampleScenario.node[191].veinsmobility 	maxSpeed 	22.21911756112
scalar RSUExampleScenario.node[191].veinsmobility 	totalDistance 	1351.5353338406
scalar RSUExampleScenario.node[191].veinsmobility 	totalCO2Emission 	428.58835854694
scalar RSUExampleScenario.node[101].veinsmobility 	startTime 	152.1
scalar RSUExampleScenario.node[101].veinsmobility 	totalTime 	260.1
scalar RSUExampleScenario.node[101].veinsmobility 	stopTime 	412.3
scalar RSUExampleScenario.node[101].veinsmobility 	minSpeed 	0
scalar RSUExampleScenario.node[101].veinsmobility 	maxSpeed 	22.219938222652
scalar RSUExampleScenario.node[101].veinsmobility 	totalDistance 	3047.4014276749
scalar RSUExampleScenario.node[101].veinsmobility 	totalCO2Emission 	921.7337373708
scalar RSUExampleScenario.node[43].veinsmobility 	startTime 	71.1
scalar RSUExampleScenario.node[43].veinsmobility 	totalTime 	341.4
scalar RSUExampleScenario.node[43].veinsmobility 	stopTime 	412.6
scalar RSUExampleScenario.node[43].veinsmobility 	minSpeed 	5.1757808693418e-013
scalar RSUExampleScenario.node[43].veinsmobility 	maxSpeed 	22.219501699547
scalar RSUExampleScenario.node[43].veinsmobility 	totalDistance 	3484.3411886866
scalar RSUExampleScenario.node[43].veinsmobility 	totalCO2Emission 	1105.9435909257
scalar RSUExampleScenario.node[41].veinsmobility 	startTime 	69.1
scalar RSUExampleScenario.node[41].veinsmobility 	totalTime 	343.7
scalar RSUExampleScenario.node[41].veinsmobility 	stopTime 	412.9
scalar RSUExampleScenario.node[41].veinsmobility 	minSpeed 	1.009876536882e-006
scalar RSUExampleScenario.node[41].veinsmobility 	maxSpeed 	22.219873989511
scalar RSUExampleScenario.node[41].veinsmobility 	totalDistance 	5401.8999277346
scalar RSUExampleScenario.node[41].veinsmobility 	totalCO2Emission 	1365.2130964444
scalar RSUExampleScenario.node[149].veinsmobility 	startTime 	229.1
scalar RSUExampleScenario.node[149].veinsmobility 	totalTime 	187.2
scalar RSUExampleScenario.node[149].veinsmobility 	stopTime 	416.4
scalar RSUExampleScenario.node[149].veinsmobility 	minSpeed 	1.3740832189249e-014
scalar RSUExampleScenario.node[149].veinsmobility 	maxSpeed 	22.219634425836
scalar RSUExampleScenario.node[149].veinsmobility 	totalDistance 	2221.361539142
scalar RSUExampleScenario.node[149].veinsmobility 	totalCO2Emission 	671.78858044013
scalar RSUExampleScenario.node[140].veinsmobility 	startTime 	214.1
scalar RSUExampleScenario.node[140].veinsmobility 	totalTime 	202.9
scalar RSUExampleScenario.node[140].veinsmobility 	stopTime 	417.1
scalar RSUExampleScenario.node[140].veinsmobility 	minSpeed 	0.25693167625018
scalar RSUExampleScenario.node[140].veinsmobility 	maxSpeed 	22.219933900444
scalar RSUExampleScenario.node[140].veinsmobility 	totalDistance 	1511.9378420032
scalar RSUExampleScenario.node[140].veinsmobility 	totalCO2Emission 	418.02768711301
scalar RSUExampleScenario.node[139].veinsmobility 	startTime 	213.1
scalar RSUExampleScenario.node[139].veinsmobility 	totalTime 	205.1
scalar RSUExampleScenario.node[139].veinsmobility 	stopTime 	418.3
scalar RSUExampleScenario.node[139].veinsmobility 	minSpeed 	2.5037398446826e-015
scalar RSUExampleScenario.node[139].veinsmobility 	maxSpeed 	22.219457196984
scalar RSUExampleScenario.node[139].veinsmobility 	totalDistance 	1797.8076394685
scalar RSUExampleScenario.node[139].veinsmobility 	totalCO2Emission 	645.9072975439
scalar RSUExampleScenario.node[151].veinsmobility 	startTime 	233.1
scalar RSUExampleScenario.node[151].veinsmobility 	totalTime 	185.4
scalar RSUExampleScenario.node[151].veinsmobility 	stopTime 	418.6
scalar RSUExampleScenario.node[151].veinsmobility 	minSpeed 	1.0707279311387e-009
scalar RSUExampleScenario.node[151].veinsmobility 	maxSpeed 	22.219929609504
scalar RSUExampleScenario.node[151].veinsmobility 	totalDistance 	2921.6986508635
scalar RSUExampleScenario.node[151].veinsmobility 	totalCO2Emission 	685.22418771328
scalar RSUExampleScenario.node[143].veinsmobility 	startTime 	220.1
scalar RSUExampleScenario.node[143].veinsmobility 	totalTime 	199.1
scalar RSUExampleScenario.node[143].veinsmobility 	stopTime 	419.3
scalar RSUExampleScenario.node[143].veinsmobility 	minSpeed 	5.5312807082591e-009
scalar RSUExampleScenario.node[143].veinsmobility 	maxSpeed 	22.218628350112
scalar RSUExampleScenario.node[143].veinsmobility 	totalDistance 	1800.4098880388
scalar RSUExampleScenario.node[143].veinsmobility 	totalCO2Emission 	647.73672678893
scalar RSUExampleScenario.node[71].veinsmobility 	startTime 	114.1
scalar RSUExampleScenario.node[71].veinsmobility 	totalTime 	307.2
scalar RSUExampleScenario.node[71].veinsmobility 	stopTime 	421.4
scalar RSUExampleScenario.node[71].veinsmobility 	minSpeed 	6.5084333021383e-010
scalar RSUExampleScenario.node[71].veinsmobility 	maxSpeed 	22.218128200315
scalar RSUExampleScenario.node[71].veinsmobility 	totalDistance 	2419.8148069908
scalar RSUExampleScenario.node[71].veinsmobility 	totalCO2Emission 	805.49465797293
scalar RSUExampleScenario.node[171].veinsmobility 	startTime 	263.1
scalar RSUExampleScenario.node[171].veinsmobility 	totalTime 	158.5
scalar RSUExampleScenario.node[171].veinsmobility 	stopTime 	421.7
scalar RSUExampleScenario.node[171].veinsmobility 	minSpeed 	0.24992650388414
scalar RSUExampleScenario.node[171].veinsmobility 	maxSpeed 	22.219273434638
scalar RSUExampleScenario.node[171].veinsmobility 	totalDistance 	1091.2372612479
scalar RSUExampleScenario.node[171].veinsmobility 	totalCO2Emission 	327.50815068211
scalar RSUExampleScenario.node[206].veinsmobility 	startTime 	321.5
scalar RSUExampleScenario.node[206].veinsmobility 	totalTime 	101.4
scalar RSUExampleScenario.node[206].veinsmobility 	stopTime 	423
scalar RSUExampleScenario.node[206].veinsmobility 	minSpeed 	0.25829554583458
scalar RSUExampleScenario.node[206].veinsmobility 	maxSpeed 	22.219947022251
scalar RSUExampleScenario.node[206].veinsmobility 	totalDistance 	1447.2977047006
scalar RSUExampleScenario.node[206].veinsmobility 	totalCO2Emission 	457.33329782921
scalar RSUExampleScenario.node[83].veinsmobility 	startTime 	128.1
scalar RSUExampleScenario.node[83].veinsmobility 	totalTime 	295.3
scalar RSUExampleScenario.node[83].veinsmobility 	stopTime 	423.5
scalar RSUExampleScenario.node[83].veinsmobility 	minSpeed 	5.1844515447205e-013
scalar RSUExampleScenario.node[83].veinsmobility 	maxSpeed 	22.219793419195
scalar RSUExampleScenario.node[83].veinsmobility 	totalDistance 	3342.1665034841
scalar RSUExampleScenario.node[83].veinsmobility 	totalCO2Emission 	979.78620710399
scalar RSUExampleScenario.node[40].veinsmobility 	startTime 	67.1
scalar RSUExampleScenario.node[40].veinsmobility 	totalTime 	357.9
scalar RSUExampleScenario.node[40].veinsmobility 	stopTime 	425.1
scalar RSUExampleScenario.node[40].veinsmobility 	minSpeed 	1.493313319711e-009
scalar RSUExampleScenario.node[40].veinsmobility 	maxSpeed 	22.219847995245
scalar RSUExampleScenario.node[40].veinsmobility 	totalDistance 	3688.5656966804
scalar RSUExampleScenario.node[40].veinsmobility 	totalCO2Emission 	976.01981620727
scalar RSUExampleScenario.node[109].veinsmobility 	startTime 	166.1
scalar RSUExampleScenario.node[109].veinsmobility 	totalTime 	259
scalar RSUExampleScenario.node[109].veinsmobility 	stopTime 	425.2
scalar RSUExampleScenario.node[109].veinsmobility 	minSpeed 	6.2114191854961e-008
scalar RSUExampleScenario.node[109].veinsmobility 	maxSpeed 	22.219857625791
scalar RSUExampleScenario.node[109].veinsmobility 	totalDistance 	2706.2282192556
scalar RSUExampleScenario.node[109].veinsmobility 	totalCO2Emission 	715.20390027715
scalar RSUExampleScenario.node[5].veinsmobility 	startTime 	11.1
scalar RSUExampleScenario.node[5].veinsmobility 	totalTime 	414.2
scalar RSUExampleScenario.node[5].veinsmobility 	stopTime 	425.4
scalar RSUExampleScenario.node[5].veinsmobility 	minSpeed 	5.8549701211664e-014
scalar RSUExampleScenario.node[5].veinsmobility 	maxSpeed 	22.219252838122
scalar RSUExampleScenario.node[5].veinsmobility 	totalDistance 	4296.2815238065
scalar RSUExampleScenario.node[5].veinsmobility 	totalCO2Emission 	1331.9587665094
scalar RSUExampleScenario.node[46].veinsmobility 	startTime 	76.9
scalar RSUExampleScenario.node[46].veinsmobility 	totalTime 	348.9
scalar RSUExampleScenario.node[46].veinsmobility 	stopTime 	425.9
scalar RSUExampleScenario.node[46].veinsmobility 	minSpeed 	2.0108966576714e-015
scalar RSUExampleScenario.node[46].veinsmobility 	maxSpeed 	22.219769311594
scalar RSUExampleScenario.node[46].veinsmobility 	totalDistance 	2343.942779372
scalar RSUExampleScenario.node[46].veinsmobility 	totalCO2Emission 	776.50394250829
scalar RSUExampleScenario.node[165].veinsmobility 	startTime 	255.1
scalar RSUExampleScenario.node[165].veinsmobility 	totalTime 	172.7
scalar RSUExampleScenario.node[165].veinsmobility 	stopTime 	427.9
scalar RSUExampleScenario.node[165].veinsmobility 	minSpeed 	7.2249751682145e-014
scalar RSUExampleScenario.node[165].veinsmobility 	maxSpeed 	19.536729129628
scalar RSUExampleScenario.node[165].veinsmobility 	totalDistance 	1274.4840972743
scalar RSUExampleScenario.node[165].veinsmobility 	totalCO2Emission 	431.54497160899
scalar RSUExampleScenario.node[226].veinsmobility 	startTime 	365.1
scalar RSUExampleScenario.node[226].veinsmobility 	totalTime 	63.4
scalar RSUExampleScenario.node[226].veinsmobility 	stopTime 	428.6
scalar RSUExampleScenario.node[226].veinsmobility 	minSpeed 	0.24709743870213
scalar RSUExampleScenario.node[226].veinsmobility 	maxSpeed 	22.219574516295
scalar RSUExampleScenario.node[226].veinsmobility 	totalDistance 	968.32410350639
scalar RSUExampleScenario.node[226].veinsmobility 	totalCO2Emission 	254.66037733007
scalar RSUExampleScenario.node[152].veinsmobility 	startTime 	237.1
scalar RSUExampleScenario.node[152].veinsmobility 	totalTime 	191.6
scalar RSUExampleScenario.node[152].veinsmobility 	stopTime 	428.8
scalar RSUExampleScenario.node[152].veinsmobility 	minSpeed 	1.4079129413127e-009
scalar RSUExampleScenario.node[152].veinsmobility 	maxSpeed 	22.219881185421
scalar RSUExampleScenario.node[152].veinsmobility 	totalDistance 	2544.5229369272
scalar RSUExampleScenario.node[152].veinsmobility 	totalCO2Emission 	747.14204413626
scalar RSUExampleScenario.node[182].veinsmobility 	startTime 	277.1
scalar RSUExampleScenario.node[182].veinsmobility 	totalTime 	153.8
scalar RSUExampleScenario.node[182].veinsmobility 	stopTime 	431
scalar RSUExampleScenario.node[182].veinsmobility 	minSpeed 	0.24917103336807
scalar RSUExampleScenario.node[182].veinsmobility 	maxSpeed 	22.21997391369
scalar RSUExampleScenario.node[182].veinsmobility 	totalDistance 	2068.4495338463
scalar RSUExampleScenario.node[182].veinsmobility 	totalCO2Emission 	543.24731040889
scalar RSUExampleScenario.node[80].veinsmobility 	startTime 	124.1
scalar RSUExampleScenario.node[80].veinsmobility 	totalTime 	307.3
scalar RSUExampleScenario.node[80].veinsmobility 	stopTime 	431.5
scalar RSUExampleScenario.node[80].veinsmobility 	minSpeed 	0
scalar RSUExampleScenario.node[80].veinsmobility 	maxSpeed 	22.219696104964
scalar RSUExampleScenario.node[80].veinsmobility 	totalDistance 	2406.6431137261
scalar RSUExampleScenario.node[80].veinsmobility 	totalCO2Emission 	833.68298210754
scalar RSUExampleScenario.node[246].veinsmobility 	startTime 	396.1
scalar RSUExampleScenario.node[246].veinsmobility 	totalTime 	37
scalar RSUExampleScenario.node[246].veinsmobility 	stopTime 	433.2
scalar RSUExampleScenario.node[246].veinsmobility 	minSpeed 	0.24809305752441
scalar RSUExampleScenario.node[246].veinsmobility 	maxSpeed 	22.219313851839
scalar RSUExampleScenario.node[246].veinsmobility 	totalDistance 	539.92152110229
scalar RSUExampleScenario.node[246].veinsmobility 	totalCO2Emission 	168.42187445724
scalar RSUExampleScenario.node[188].veinsmobility 	startTime 	288.8
scalar RSUExampleScenario.node[188].veinsmobility 	totalTime 	149.8
scalar RSUExampleScenario.node[188].veinsmobility 	stopTime 	438.7
scalar RSUExampleScenario.node[188].veinsmobility 	minSpeed 	0.25730074977782
scalar RSUExampleScenario.node[188].veinsmobility 	maxSpeed 	22.219879476884
scalar RSUExampleScenario.node[188].veinsmobility 	totalDistance 	2537.0834042843
scalar RSUExampleScenario.node[188].veinsmobility 	totalCO2Emission 	689.99054404845
scalar RSUExampleScenario.node[72].veinsmobility 	startTime 	116.1
scalar RSUExampleScenario.node[72].veinsmobility 	totalTime 	325.9
scalar RSUExampleScenario.node[72].veinsmobility 	stopTime 	442.1
scalar RSUExampleScenario.node[72].veinsmobility 	minSpeed 	0
scalar RSUExampleScenario.node[72].veinsmobility 	maxSpeed 	22.219784070808
scalar RSUExampleScenario.node[72].veinsmobility 	totalDistance 	3085.3026230947
scalar RSUExampleScenario.node[72].veinsmobility 	totalCO2Emission 	938.5989968082
scalar RSUExampleScenario.node[166].veinsmobility 	startTime 	256.1
scalar RSUExampleScenario.node[166].veinsmobility 	totalTime 	186.6
scalar RSUExampleScenario.node[166].veinsmobility 	stopTime 	442.8
scalar RSUExampleScenario.node[166].veinsmobility 	minSpeed 	3.694768318208e-015
scalar RSUExampleScenario.node[166].veinsmobility 	maxSpeed 	22.219318644684
scalar RSUExampleScenario.node[166].veinsmobility 	totalDistance 	1969.0229101748
scalar RSUExampleScenario.node[166].veinsmobility 	totalCO2Emission 	545.72625186765
scalar RSUExampleScenario.node[131].veinsmobility 	startTime 	198.1
scalar RSUExampleScenario.node[131].veinsmobility 	totalTime 	245.5
scalar RSUExampleScenario.node[131].veinsmobility 	stopTime 	443.7
scalar RSUExampleScenario.node[131].veinsmobility 	minSpeed 	2.005435947517e-015
scalar RSUExampleScenario.node[131].veinsmobility 	maxSpeed 	22.219197129172
scalar RSUExampleScenario.node[131].veinsmobility 	totalDistance 	2438.2357355916
scalar RSUExampleScenario.node[131].veinsmobility 	totalCO2Emission 	808.04693007721
scalar RSUExampleScenario.node[137].veinsmobility 	startTime 	206.9
scalar RSUExampleScenario.node[137].veinsmobility 	totalTime 	240.3
scalar RSUExampleScenario.node[137].veinsmobility 	stopTime 	447.3
scalar RSUExampleScenario.node[137].veinsmobility 	minSpeed 	0.0059756428506235
scalar RSUExampleScenario.node[137].veinsmobility 	maxSpeed 	22.219544839384
scalar RSUExampleScenario.node[137].veinsmobility 	totalDistance 	3839.1932144202
scalar RSUExampleScenario.node[137].veinsmobility 	totalCO2Emission 	917.95846624605
scalar RSUExampleScenario.node[106].veinsmobility 	startTime 	161.1
scalar RSUExampleScenario.node[106].veinsmobility 	totalTime 	286.1
scalar RSUExampleScenario.node[106].veinsmobility 	stopTime 	447.3
scalar RSUExampleScenario.node[106].veinsmobility 	minSpeed 	0.00087311001243521
scalar RSUExampleScenario.node[106].veinsmobility 	maxSpeed 	15.136464975753
scalar RSUExampleScenario.node[106].veinsmobility 	totalDistance 	1061.9484082748
scalar RSUExampleScenario.node[106].veinsmobility 	totalCO2Emission 	474.82855388763
scalar RSUExampleScenario.node[113].veinsmobility 	startTime 	172.1
scalar RSUExampleScenario.node[113].veinsmobility 	totalTime 	277.2
scalar RSUExampleScenario.node[113].veinsmobility 	stopTime 	449.4
scalar RSUExampleScenario.node[113].veinsmobility 	minSpeed 	2.838829984442e-010
scalar RSUExampleScenario.node[113].veinsmobility 	maxSpeed 	22.219888019811
scalar RSUExampleScenario.node[113].veinsmobility 	totalDistance 	3102.0870562243
scalar RSUExampleScenario.node[113].veinsmobility 	totalCO2Emission 	943.59186842113
scalar RSUExampleScenario.node[49].veinsmobility 	startTime 	79.3
scalar RSUExampleScenario.node[49].veinsmobility 	totalTime 	372.5
scalar RSUExampleScenario.node[49].veinsmobility 	stopTime 	451.9
scalar RSUExampleScenario.node[49].veinsmobility 	minSpeed 	1.4673505510257e-014
scalar RSUExampleScenario.node[49].veinsmobility 	maxSpeed 	22.219682575811
scalar RSUExampleScenario.node[49].veinsmobility 	totalDistance 	3850.4839604261
scalar RSUExampleScenario.node[49].veinsmobility 	totalCO2Emission 	1193.8285006808
scalar RSUExampleScenario.node[119].veinsmobility 	startTime 	179.1
scalar RSUExampleScenario.node[119].veinsmobility 	totalTime 	273.5
scalar RSUExampleScenario.node[119].veinsmobility 	stopTime 	452.7
scalar RSUExampleScenario.node[119].veinsmobility 	minSpeed 	1.8632396713823e-011
scalar RSUExampleScenario.node[119].veinsmobility 	maxSpeed 	22.219423123286
scalar RSUExampleScenario.node[119].veinsmobility 	totalDistance 	2962.8271115003
scalar RSUExampleScenario.node[119].veinsmobility 	totalCO2Emission 	997.01939729073
scalar RSUExampleScenario.node[84].veinsmobility 	startTime 	129.1
scalar RSUExampleScenario.node[84].veinsmobility 	totalTime 	324.6
scalar RSUExampleScenario.node[84].veinsmobility 	stopTime 	453.8
scalar RSUExampleScenario.node[84].veinsmobility 	minSpeed 	6.3105290347203e-015
scalar RSUExampleScenario.node[84].veinsmobility 	maxSpeed 	22.219561981929
scalar RSUExampleScenario.node[84].veinsmobility 	totalDistance 	2113.6478609285
scalar RSUExampleScenario.node[84].veinsmobility 	totalCO2Emission 	749.95808475757
scalar RSUExampleScenario.node[85].veinsmobility 	startTime 	130.1
scalar RSUExampleScenario.node[85].veinsmobility 	totalTime 	325
scalar RSUExampleScenario.node[85].veinsmobility 	stopTime 	455.2
scalar RSUExampleScenario.node[85].veinsmobility 	minSpeed 	3.1752258018483e-016
scalar RSUExampleScenario.node[85].veinsmobility 	maxSpeed 	22.219981063502
scalar RSUExampleScenario.node[85].veinsmobility 	totalDistance 	3901.1383179388
scalar RSUExampleScenario.node[85].veinsmobility 	totalCO2Emission 	1167.9296181298
scalar RSUExampleScenario.node[223].veinsmobility 	startTime 	360.1
scalar RSUExampleScenario.node[223].veinsmobility 	totalTime 	98.7
scalar RSUExampleScenario.node[223].veinsmobility 	stopTime 	458.9
scalar RSUExampleScenario.node[223].veinsmobility 	minSpeed 	0.25892350881197
scalar RSUExampleScenario.node[223].veinsmobility 	maxSpeed 	22.219879936383
scalar RSUExampleScenario.node[223].veinsmobility 	totalDistance 	1462.6791280238
scalar RSUExampleScenario.node[223].veinsmobility 	totalCO2Emission 	360.56925136418
scalar RSUExampleScenario.node[116].veinsmobility 	startTime 	176.1
scalar RSUExampleScenario.node[116].veinsmobility 	totalTime 	284.4
scalar RSUExampleScenario.node[116].veinsmobility 	stopTime 	460.6
scalar RSUExampleScenario.node[116].veinsmobility 	minSpeed 	3.1556267794246e-014
scalar RSUExampleScenario.node[116].veinsmobility 	maxSpeed 	22.219654500864
scalar RSUExampleScenario.node[116].veinsmobility 	totalDistance 	2090.3434048514
[...]
scalar RSUExampleScenario.node[5251].veinsmobility 	maxSpeed 	22.219016352883
scalar RSUExampleScenario.node[5251].veinsmobility 	totalDistance 	1626.5061435807
scalar RSUExampleScenario.node[5251].veinsmobility 	totalCO2Emission 	1146.8380611519
scalar RSUExampleScenario.node[5627].veinsmobility 	startTime 	9188.1
scalar RSUExampleScenario.node[5627].veinsmobility 	totalTime 	137
scalar RSUExampleScenario.node[5627].veinsmobility 	stopTime 	9325.2
scalar RSUExampleScenario.node[5627].veinsmobility 	minSpeed 	1.4493243868045e-009
scalar RSUExampleScenario.node[5627].veinsmobility 	maxSpeed 	22.21872982159
scalar RSUExampleScenario.node[5627].veinsmobility 	totalDistance 	1212.7957563089
scalar RSUExampleScenario.node[5627].veinsmobility 	totalCO2Emission 	407.88629690279
scalar RSUExampleScenario.node[5676].veinsmobility 	startTime 	9276.1
scalar RSUExampleScenario.node[5676].veinsmobility 	totalTime 	61.8
scalar RSUExampleScenario.node[5676].veinsmobility 	stopTime 	9338
scalar RSUExampleScenario.node[5676].veinsmobility 	minSpeed 	0.059624106320394
scalar RSUExampleScenario.node[5676].veinsmobility 	maxSpeed 	21.628539371675
scalar RSUExampleScenario.node[5676].veinsmobility 	totalDistance 	640.46587663621
scalar RSUExampleScenario.node[5676].veinsmobility 	totalCO2Emission 	213.59573175208
scalar RSUExampleScenario.node[5521].veinsmobility 	startTime 	9014.1
scalar RSUExampleScenario.node[5521].veinsmobility 	totalTime 	324.4
scalar RSUExampleScenario.node[5521].veinsmobility 	stopTime 	9338.6
scalar RSUExampleScenario.node[5521].veinsmobility 	minSpeed 	5.8569800936463e-014
scalar RSUExampleScenario.node[5521].veinsmobility 	maxSpeed 	22.219888131227
scalar RSUExampleScenario.node[5521].veinsmobility 	totalDistance 	3547.0104490772
scalar RSUExampleScenario.node[5521].veinsmobility 	totalCO2Emission 	1015.4585634201
scalar RSUExampleScenario.node[5650].veinsmobility 	startTime 	9237.1
scalar RSUExampleScenario.node[5650].veinsmobility 	totalTime 	109.5
scalar RSUExampleScenario.node[5650].veinsmobility 	stopTime 	9346.7
scalar RSUExampleScenario.node[5650].veinsmobility 	minSpeed 	0.25581863704999
scalar RSUExampleScenario.node[5650].veinsmobility 	maxSpeed 	22.219783261865
scalar RSUExampleScenario.node[5650].veinsmobility 	totalDistance 	1696.8116886194
scalar RSUExampleScenario.node[5650].veinsmobility 	totalCO2Emission 	499.10295553555
scalar RSUExampleScenario.node[5571].veinsmobility 	startTime 	9107.1
scalar RSUExampleScenario.node[5571].veinsmobility 	totalTime 	239.9
scalar RSUExampleScenario.node[5571].veinsmobility 	stopTime 	9347.1
scalar RSUExampleScenario.node[5571].veinsmobility 	minSpeed 	0.24799208697537
scalar RSUExampleScenario.node[5571].veinsmobility 	maxSpeed 	22.219452183002
scalar RSUExampleScenario.node[5571].veinsmobility 	totalDistance 	2140.7594700444
scalar RSUExampleScenario.node[5571].veinsmobility 	totalCO2Emission 	603.99963130318
scalar RSUExampleScenario.node[5677].veinsmobility 	startTime 	9277.1
scalar RSUExampleScenario.node[5677].veinsmobility 	totalTime 	79
scalar RSUExampleScenario.node[5677].veinsmobility 	stopTime 	9356.2
scalar RSUExampleScenario.node[5677].veinsmobility 	minSpeed 	0.25843854469573
scalar RSUExampleScenario.node[5677].veinsmobility 	maxSpeed 	38.676144456321
scalar RSUExampleScenario.node[5677].veinsmobility 	totalDistance 	1624.483482101
scalar RSUExampleScenario.node[5677].veinsmobility 	totalCO2Emission 	682.37026564594
scalar RSUExampleScenario.node[5617].veinsmobility 	startTime 	9174.1
scalar RSUExampleScenario.node[5617].veinsmobility 	totalTime 	182.6
scalar RSUExampleScenario.node[5617].veinsmobility 	stopTime 	9356.8
scalar RSUExampleScenario.node[5617].veinsmobility 	minSpeed 	2.0056994454091e-015
scalar RSUExampleScenario.node[5617].veinsmobility 	maxSpeed 	17.347753205502
scalar RSUExampleScenario.node[5617].veinsmobility 	totalDistance 	1167.1068470296
scalar RSUExampleScenario.node[5617].veinsmobility 	totalCO2Emission 	397.14418432289
scalar RSUExampleScenario.node[5497].veinsmobility 	startTime 	8975.1
scalar RSUExampleScenario.node[5497].veinsmobility 	totalTime 	383.2
scalar RSUExampleScenario.node[5497].veinsmobility 	stopTime 	9358.4
scalar RSUExampleScenario.node[5497].veinsmobility 	minSpeed 	5.8575357504821e-014
scalar RSUExampleScenario.node[5497].veinsmobility 	maxSpeed 	22.219992416024
scalar RSUExampleScenario.node[5497].veinsmobility 	totalDistance 	4373.9279320278
scalar RSUExampleScenario.node[5497].veinsmobility 	totalCO2Emission 	1222.5749696965
scalar RSUExampleScenario.node[5525].veinsmobility 	startTime 	9021.1
scalar RSUExampleScenario.node[5525].veinsmobility 	totalTime 	339.9
scalar RSUExampleScenario.node[5525].veinsmobility 	stopTime 	9361.1
scalar RSUExampleScenario.node[5525].veinsmobility 	minSpeed 	0.0030068946823793
scalar RSUExampleScenario.node[5525].veinsmobility 	maxSpeed 	22.21976223161
scalar RSUExampleScenario.node[5525].veinsmobility 	totalDistance 	3250.2537585316
scalar RSUExampleScenario.node[5525].veinsmobility 	totalCO2Emission 	927.43284093989
scalar RSUExampleScenario.node[5527].veinsmobility 	startTime 	9023.1
scalar RSUExampleScenario.node[5527].veinsmobility 	totalTime 	352
scalar RSUExampleScenario.node[5527].veinsmobility 	stopTime 	9375.2
scalar RSUExampleScenario.node[5527].veinsmobility 	minSpeed 	9.5008880810937e-016
scalar RSUExampleScenario.node[5527].veinsmobility 	maxSpeed 	22.218385405443
scalar RSUExampleScenario.node[5527].veinsmobility 	totalDistance 	1847.0202477569
scalar RSUExampleScenario.node[5527].veinsmobility 	totalCO2Emission 	812.85592471166
scalar RSUExampleScenario.node[5583].veinsmobility 	startTime 	9127.1
scalar RSUExampleScenario.node[5583].veinsmobility 	totalTime 	253.5
scalar RSUExampleScenario.node[5583].veinsmobility 	stopTime 	9380.7
scalar RSUExampleScenario.node[5583].veinsmobility 	minSpeed 	1.4661963321284e-014
scalar RSUExampleScenario.node[5583].veinsmobility 	maxSpeed 	22.219299446731
scalar RSUExampleScenario.node[5583].veinsmobility 	totalDistance 	1988.5055215062
scalar RSUExampleScenario.node[5583].veinsmobility 	totalCO2Emission 	699.86618203705
scalar RSUExampleScenario.node[5522].veinsmobility 	startTime 	9017.1
scalar RSUExampleScenario.node[5522].veinsmobility 	totalTime 	366.7
scalar RSUExampleScenario.node[5522].veinsmobility 	stopTime 	9383.9
scalar RSUExampleScenario.node[5522].veinsmobility 	minSpeed 	3.6923590681062e-015
scalar RSUExampleScenario.node[5522].veinsmobility 	maxSpeed 	22.217098078041
scalar RSUExampleScenario.node[5522].veinsmobility 	totalDistance 	811.22696620929
scalar RSUExampleScenario.node[5522].veinsmobility 	totalCO2Emission 	616.32497197444
scalar RSUExampleScenario.node[5535].veinsmobility 	startTime 	9043.1
scalar RSUExampleScenario.node[5535].veinsmobility 	totalTime 	341.4
scalar RSUExampleScenario.node[5535].veinsmobility 	stopTime 	9384.6
scalar RSUExampleScenario.node[5535].veinsmobility 	minSpeed 	3.4825005458152e-015
scalar RSUExampleScenario.node[5535].veinsmobility 	maxSpeed 	22.219918610421
scalar RSUExampleScenario.node[5535].veinsmobility 	totalDistance 	2733.6751163602
scalar RSUExampleScenario.node[5535].veinsmobility 	totalCO2Emission 	854.80856870156
scalar RSUExampleScenario.node[5697].veinsmobility 	startTime 	9316.1
scalar RSUExampleScenario.node[5697].veinsmobility 	totalTime 	69.4
scalar RSUExampleScenario.node[5697].veinsmobility 	stopTime 	9385.6
scalar RSUExampleScenario.node[5697].veinsmobility 	minSpeed 	0.25685740207788
scalar RSUExampleScenario.node[5697].veinsmobility 	maxSpeed 	22.218685058148
scalar RSUExampleScenario.node[5697].veinsmobility 	totalDistance 	1129.8045076279
scalar RSUExampleScenario.node[5697].veinsmobility 	totalCO2Emission 	311.98693148506
scalar RSUExampleScenario.node[5686].veinsmobility 	startTime 	9295.1
scalar RSUExampleScenario.node[5686].veinsmobility 	totalTime 	96.9
scalar RSUExampleScenario.node[5686].veinsmobility 	stopTime 	9392.1
scalar RSUExampleScenario.node[5686].veinsmobility 	minSpeed 	1.393521408977e-005
scalar RSUExampleScenario.node[5686].veinsmobility 	maxSpeed 	22.219645620116
scalar RSUExampleScenario.node[5686].veinsmobility 	totalDistance 	1148.0690095645
scalar RSUExampleScenario.node[5686].veinsmobility 	totalCO2Emission 	408.83766197581
scalar RSUExampleScenario.node[5490].veinsmobility 	startTime 	8963.1
scalar RSUExampleScenario.node[5490].veinsmobility 	totalTime 	432.6
scalar RSUExampleScenario.node[5490].veinsmobility 	stopTime 	9395.8
scalar RSUExampleScenario.node[5490].veinsmobility 	minSpeed 	9.5008820935625e-016
scalar RSUExampleScenario.node[5490].veinsmobility 	maxSpeed 	22.21904766269
scalar RSUExampleScenario.node[5490].veinsmobility 	totalDistance 	3257.6122321554
scalar RSUExampleScenario.node[5490].veinsmobility 	totalCO2Emission 	1016.0482743873
scalar RSUExampleScenario.node[5654].veinsmobility 	startTime 	9242.1
scalar RSUExampleScenario.node[5654].veinsmobility 	totalTime 	156.1
scalar RSUExampleScenario.node[5654].veinsmobility 	stopTime 	9398.3
scalar RSUExampleScenario.node[5654].veinsmobility 	minSpeed 	0.25093627277995
scalar RSUExampleScenario.node[5654].veinsmobility 	maxSpeed 	22.219473328488
scalar RSUExampleScenario.node[5654].veinsmobility 	totalDistance 	1215.2272860139
scalar RSUExampleScenario.node[5654].veinsmobility 	totalCO2Emission 	388.9905665124
scalar RSUExampleScenario.node[5512].veinsmobility 	startTime 	9001.1
scalar RSUExampleScenario.node[5512].veinsmobility 	totalTime 	405.7
scalar RSUExampleScenario.node[5512].veinsmobility 	stopTime 	9406.9
scalar RSUExampleScenario.node[5512].veinsmobility 	minSpeed 	2.0047831432522e-015
scalar RSUExampleScenario.node[5512].veinsmobility 	maxSpeed 	22.219751880988
scalar RSUExampleScenario.node[5512].veinsmobility 	totalDistance 	1534.9408433071
scalar RSUExampleScenario.node[5512].veinsmobility 	totalCO2Emission 	781.86863305301
scalar RSUExampleScenario.node[5727].veinsmobility 	startTime 	9359.1
scalar RSUExampleScenario.node[5727].veinsmobility 	totalTime 	50.3
scalar RSUExampleScenario.node[5727].veinsmobility 	stopTime 	9409.5
scalar RSUExampleScenario.node[5727].veinsmobility 	minSpeed 	0.25643896154151
scalar RSUExampleScenario.node[5727].veinsmobility 	maxSpeed 	22.217921800755
scalar RSUExampleScenario.node[5727].veinsmobility 	totalDistance 	632.86071342404
scalar RSUExampleScenario.node[5727].veinsmobility 	totalCO2Emission 	256.23228814855
scalar RSUExampleScenario.node[5682].veinsmobility 	startTime 	9284.1
scalar RSUExampleScenario.node[5682].veinsmobility 	totalTime 	125.4
scalar RSUExampleScenario.node[5682].veinsmobility 	stopTime 	9409.6
scalar RSUExampleScenario.node[5682].veinsmobility 	minSpeed 	0.24777176079829
scalar RSUExampleScenario.node[5682].veinsmobility 	maxSpeed 	22.219983031012
scalar RSUExampleScenario.node[5682].veinsmobility 	totalDistance 	1903.2854975741
scalar RSUExampleScenario.node[5682].veinsmobility 	totalCO2Emission 	555.73338201674
scalar RSUExampleScenario.node[5675].veinsmobility 	startTime 	9272.1
scalar RSUExampleScenario.node[5675].veinsmobility 	totalTime 	144.6
scalar RSUExampleScenario.node[5675].veinsmobility 	stopTime 	9416.8
scalar RSUExampleScenario.node[5675].veinsmobility 	minSpeed 	7.5823303896735e-015
scalar RSUExampleScenario.node[5675].veinsmobility 	maxSpeed 	22.219370144145
scalar RSUExampleScenario.node[5675].veinsmobility 	totalDistance 	1393.7234502403
scalar RSUExampleScenario.node[5675].veinsmobility 	totalCO2Emission 	463.32316782593
scalar RSUExampleScenario.node[5568].veinsmobility 	startTime 	9104.1
scalar RSUExampleScenario.node[5568].veinsmobility 	totalTime 	316
scalar RSUExampleScenario.node[5568].veinsmobility 	stopTime 	9420.2
scalar RSUExampleScenario.node[5568].veinsmobility 	minSpeed 	7.9111660276947e-015
scalar RSUExampleScenario.node[5568].veinsmobility 	maxSpeed 	7.0163256734796
scalar RSUExampleScenario.node[5568].veinsmobility 	totalDistance 	60.337289470706
scalar RSUExampleScenario.node[5568].veinsmobility 	totalCO2Emission 	362.65614536228
scalar RSUExampleScenario.node[5603].veinsmobility 	startTime 	9153.1
scalar RSUExampleScenario.node[5603].veinsmobility 	totalTime 	270.8
scalar RSUExampleScenario.node[5603].veinsmobility 	stopTime 	9424
scalar RSUExampleScenario.node[5603].veinsmobility 	minSpeed 	3.4821247342546e-015
scalar RSUExampleScenario.node[5603].veinsmobility 	maxSpeed 	22.219917794366
scalar RSUExampleScenario.node[5603].veinsmobility 	totalDistance 	1978.2849479032
scalar RSUExampleScenario.node[5603].veinsmobility 	totalCO2Emission 	818.48050175078
scalar RSUExampleScenario.node[5417].veinsmobility 	startTime 	8833.1
scalar RSUExampleScenario.node[5417].veinsmobility 	totalTime 	593.9
scalar RSUExampleScenario.node[5417].veinsmobility 	stopTime 	9427.1
scalar RSUExampleScenario.node[5417].veinsmobility 	minSpeed 	0
scalar RSUExampleScenario.node[5417].veinsmobility 	maxSpeed 	7.9493526365386
scalar RSUExampleScenario.node[5417].veinsmobility 	totalDistance 	69.881886994887
scalar RSUExampleScenario.node[5417].veinsmobility 	totalCO2Emission 	646.19363023616
scalar RSUExampleScenario.node[5333].veinsmobility 	startTime 	8702.6
scalar RSUExampleScenario.node[5333].veinsmobility 	totalTime 	725.8
scalar RSUExampleScenario.node[5333].veinsmobility 	stopTime 	9428.5
scalar RSUExampleScenario.node[5333].veinsmobility 	minSpeed 	0
scalar RSUExampleScenario.node[5333].veinsmobility 	maxSpeed 	3.3877154024864
scalar RSUExampleScenario.node[5333].veinsmobility 	totalDistance 	10.244775078534
scalar RSUExampleScenario.node[5333].veinsmobility 	totalCO2Emission 	719.52773309581
scalar RSUExampleScenario.node[5328].veinsmobility 	startTime 	8696.1
scalar RSUExampleScenario.node[5328].veinsmobility 	totalTime 	740.3
scalar RSUExampleScenario.node[5328].veinsmobility 	stopTime 	9436.5
scalar RSUExampleScenario.node[5328].veinsmobility 	minSpeed 	3.6923913296112e-015
scalar RSUExampleScenario.node[5328].veinsmobility 	maxSpeed 	13.884994710786
scalar RSUExampleScenario.node[5328].veinsmobility 	totalDistance 	504.53313953115
scalar RSUExampleScenario.node[5328].veinsmobility 	totalCO2Emission 	917.54617296586
scalar RSUExampleScenario.node[5636].veinsmobility 	startTime 	9206.1
scalar RSUExampleScenario.node[5636].veinsmobility 	totalTime 	232.1
scalar RSUExampleScenario.node[5636].veinsmobility 	stopTime 	9438.3
scalar RSUExampleScenario.node[5636].veinsmobility 	minSpeed 	1.4681583366567e-014
scalar RSUExampleScenario.node[5636].veinsmobility 	maxSpeed 	22.219995606814
scalar RSUExampleScenario.node[5636].veinsmobility 	totalDistance 	1928.6447248988
scalar RSUExampleScenario.node[5636].veinsmobility 	totalCO2Emission 	624.07508496774
scalar RSUExampleScenario.node[5517].veinsmobility 	startTime 	9007.1
scalar RSUExampleScenario.node[5517].veinsmobility 	totalTime 	435.6
scalar RSUExampleScenario.node[5517].veinsmobility 	stopTime 	9442.8
scalar RSUExampleScenario.node[5517].veinsmobility 	minSpeed 	7.568399495778e-015
scalar RSUExampleScenario.node[5517].veinsmobility 	maxSpeed 	22.219713907291
scalar RSUExampleScenario.node[5517].veinsmobility 	totalDistance 	1302.3009530834
scalar RSUExampleScenario.node[5517].veinsmobility 	totalCO2Emission 	681.45025493973
scalar RSUExampleScenario.node[5542].veinsmobility 	startTime 	9061.1
scalar RSUExampleScenario.node[5542].veinsmobility 	totalTime 	396.8
scalar RSUExampleScenario.node[5542].veinsmobility 	stopTime 	9458
scalar RSUExampleScenario.node[5542].veinsmobility 	minSpeed 	1.1610226790647e-015
scalar RSUExampleScenario.node[5542].veinsmobility 	maxSpeed 	22.219576979957
scalar RSUExampleScenario.node[5542].veinsmobility 	totalDistance 	1377.0560659703
scalar RSUExampleScenario.node[5542].veinsmobility 	totalCO2Emission 	761.48355132416
scalar RSUExampleScenario.node[5758].veinsmobility 	startTime 	9407.1
scalar RSUExampleScenario.node[5758].veinsmobility 	totalTime 	59.3
scalar RSUExampleScenario.node[5758].veinsmobility 	stopTime 	9466.5
scalar RSUExampleScenario.node[5758].veinsmobility 	minSpeed 	0.25947989276308
scalar RSUExampleScenario.node[5758].veinsmobility 	maxSpeed 	17.686691645134
scalar RSUExampleScenario.node[5758].veinsmobility 	totalDistance 	647.82271678099
scalar RSUExampleScenario.node[5758].veinsmobility 	totalCO2Emission 	199.77278519355
scalar RSUExampleScenario.node[5681].veinsmobility 	startTime 	9283.1
scalar RSUExampleScenario.node[5681].veinsmobility 	totalTime 	184
scalar RSUExampleScenario.node[5681].veinsmobility 	stopTime 	9467.2
scalar RSUExampleScenario.node[5681].veinsmobility 	minSpeed 	4.0825674787979e-012
scalar RSUExampleScenario.node[5681].veinsmobility 	maxSpeed 	22.219927436837
scalar RSUExampleScenario.node[5681].veinsmobility 	totalDistance 	2001.1607809129
scalar RSUExampleScenario.node[5681].veinsmobility 	totalCO2Emission 	665.90287582321
scalar RSUExampleScenario.node[5656].veinsmobility 	startTime 	9245.1
scalar RSUExampleScenario.node[5656].veinsmobility 	totalTime 	223.8
scalar RSUExampleScenario.node[5656].veinsmobility 	stopTime 	9469
scalar RSUExampleScenario.node[5656].veinsmobility 	minSpeed 	3.673019486737e-013
scalar RSUExampleScenario.node[5656].veinsmobility 	maxSpeed 	22.218054067667
scalar RSUExampleScenario.node[5656].veinsmobility 	totalDistance 	1907.4076225462
scalar RSUExampleScenario.node[5656].veinsmobility 	totalCO2Emission 	667.81501225119
scalar RSUExampleScenario.node[5730].veinsmobility 	startTime 	9364.1
scalar RSUExampleScenario.node[5730].veinsmobility 	totalTime 	105.8
scalar RSUExampleScenario.node[5730].veinsmobility 	stopTime 	9470
scalar RSUExampleScenario.node[5730].veinsmobility 	minSpeed 	6.2265690057561e-014
scalar RSUExampleScenario.node[5730].veinsmobility 	maxSpeed 	22.219139190742
scalar RSUExampleScenario.node[5730].veinsmobility 	totalDistance 	784.60847373821
scalar RSUExampleScenario.node[5730].veinsmobility 	totalCO2Emission 	330.34891886037
scalar RSUExampleScenario.node[5358].veinsmobility 	startTime 	8736.1
scalar RSUExampleScenario.node[5358].veinsmobility 	totalTime 	737.7
scalar RSUExampleScenario.node[5358].veinsmobility 	stopTime 	9473.9
scalar RSUExampleScenario.node[5358].veinsmobility 	minSpeed 	2.0047782094818e-015
scalar RSUExampleScenario.node[5358].veinsmobility 	maxSpeed 	15.077678669846
scalar RSUExampleScenario.node[5358].veinsmobility 	totalDistance 	1292.5541410461
scalar RSUExampleScenario.node[5358].veinsmobility 	totalCO2Emission 	952.87674657577
scalar RSUExampleScenario.node[5673].veinsmobility 	startTime 	9269.1
scalar RSUExampleScenario.node[5673].veinsmobility 	totalTime 	205.2
scalar RSUExampleScenario.node[5673].veinsmobility 	stopTime 	9474.4
scalar RSUExampleScenario.node[5673].veinsmobility 	minSpeed 	4.0607857210014e-012
scalar RSUExampleScenario.node[5673].veinsmobility 	maxSpeed 	22.219548836544
scalar RSUExampleScenario.node[5673].veinsmobility 	totalDistance 	1988.4409793266
scalar RSUExampleScenario.node[5673].veinsmobility 	totalCO2Emission 	649.59260347053
scalar RSUExampleScenario.node[5759].veinsmobility 	startTime 	9408.1
scalar RSUExampleScenario.node[5759].veinsmobility 	totalTime 	68
scalar RSUExampleScenario.node[5759].veinsmobility 	stopTime 	9476.2
scalar RSUExampleScenario.node[5759].veinsmobility 	minSpeed 	0.25057213390223
scalar RSUExampleScenario.node[5759].veinsmobility 	maxSpeed 	22.216942098828
scalar RSUExampleScenario.node[5759].veinsmobility 	totalDistance 	918.92406274915
scalar RSUExampleScenario.node[5759].veinsmobility 	totalCO2Emission 	284.36302163617
scalar RSUExampleScenario.node[5503].veinsmobility 	startTime 	8987.1
scalar RSUExampleScenario.node[5503].veinsmobility 	totalTime 	489
scalar RSUExampleScenario.node[5503].veinsmobility 	stopTime 	9476.2
scalar RSUExampleScenario.node[5503].veinsmobility 	minSpeed 	3.1536943013026e-014
scalar RSUExampleScenario.node[5503].veinsmobility 	maxSpeed 	14.79194624049
scalar RSUExampleScenario.node[5503].veinsmobility 	totalDistance 	605.06694584299
scalar