version 2
run nodebug-87-20150304-19:49:31-4404
attr configname nodebug
attr datetime 20150304-19:49:31
attr experiment nodebug
attr inifile omnetpp.ini
attr iterationvars ""
attr iterationvars2 $repetition=87
attr measurement ""
attr network RSUExampleScenario
attr processid 4404
attr repetition 87
attr replication #87
attr resultdir results
attr runnumber 87
attr seedset 87

scalar RSUExampleScenario.rsu[0].appl 	NumberofCH 	21
scalar RSUExampleScenario.rsu[0].appl 	NumberofON 	51
scalar RSUExampleScenario.rsu[0].appl 	NumberofFN 	10
scalar RSUExampleScenario.rsu[0].appl 	meanClusterNodes 	2.4285714285714
scalar RSUExampleScenario.rsu[0].appl 	varClusterNodes 	1.0033955955098
scalar RSUExampleScenario.rsu[0].appl 	GSScycles 	6
