version 2
run nodebug-12-20150304-18:38:51-8320
attr configname nodebug
attr datetime 20150304-18:38:51
attr experiment nodebug
attr inifile omnetpp.ini
attr iterationvars ""
attr iterationvars2 $repetition=12
attr measurement ""
attr network RSUExampleScenario
attr processid 8320
attr repetition 12
attr replication #12
attr resultdir results
attr runnumber 12
attr seedset 12

scalar RSUExampleScenario.rsu[0].appl 	NumberofCH 	22
scalar RSUExampleScenario.rsu[0].appl 	NumberofON 	54
scalar RSUExampleScenario.rsu[0].appl 	NumberofFN 	6
scalar RSUExampleScenario.rsu[0].appl 	meanClusterNodes 	2.4545454545455
scalar RSUExampleScenario.rsu[0].appl 	varClusterNodes 	0.89072354283025
scalar RSUExampleScenario.rsu[0].appl 	GSScycles 	7
