version 2
run nodebug-11-20150304-18:37:54-9316
attr configname nodebug
attr datetime 20150304-18:37:54
attr experiment nodebug
attr inifile omnetpp.ini
attr iterationvars ""
attr iterationvars2 $repetition=11
attr measurement ""
attr network RSUExampleScenario
attr processid 9316
attr repetition 11
attr replication #11
attr resultdir results
attr runnumber 11
attr seedset 11

scalar RSUExampleScenario.rsu[0].appl 	NumberofCH 	23
scalar RSUExampleScenario.rsu[0].appl 	NumberofON 	48
scalar RSUExampleScenario.rsu[0].appl 	NumberofFN 	11
scalar RSUExampleScenario.rsu[0].appl 	meanClusterNodes 	2.0869565217391
scalar RSUExampleScenario.rsu[0].appl 	varClusterNodes 	1.0596571832134
scalar RSUExampleScenario.rsu[0].appl 	GSScycles 	8
