version 2
run nodebug-72-20150304-19:35:30-4500
attr configname nodebug
attr datetime 20150304-19:35:30
attr experiment nodebug
attr inifile omnetpp.ini
attr iterationvars ""
attr iterationvars2 $repetition=72
attr measurement ""
attr network RSUExampleScenario
attr processid 4500
attr repetition 72
attr replication #72
attr resultdir results
attr runnumber 72
attr seedset 72

scalar RSUExampleScenario.rsu[0].appl 	NumberofCH 	17
scalar RSUExampleScenario.rsu[0].appl 	NumberofON 	51
scalar RSUExampleScenario.rsu[0].appl 	NumberofFN 	14
scalar RSUExampleScenario.rsu[0].appl 	meanClusterNodes 	3
scalar RSUExampleScenario.rsu[0].appl 	varClusterNodes 	0
scalar RSUExampleScenario.rsu[0].appl 	GSScycles 	10
