version 2
run nodebug-39-20150304-19:04:32-9876
attr configname nodebug
attr datetime 20150304-19:04:32
attr experiment nodebug
attr inifile omnetpp.ini
attr iterationvars ""
attr iterationvars2 $repetition=39
attr measurement ""
attr network RSUExampleScenario
attr processid 9876
attr repetition 39
attr replication #39
attr resultdir results
attr runnumber 39
attr seedset 39

scalar RSUExampleScenario.rsu[0].appl 	NumberofCH 	15
scalar RSUExampleScenario.rsu[0].appl 	NumberofON 	43
scalar RSUExampleScenario.rsu[0].appl 	NumberofFN 	24
scalar RSUExampleScenario.rsu[0].appl 	meanClusterNodes 	2.8666666666667
scalar RSUExampleScenario.rsu[0].appl 	varClusterNodes 	0.33993463423952
scalar RSUExampleScenario.rsu[0].appl 	GSScycles 	8
