version 2
run nodebug-8-20150304-18:35:04-3276
attr configname nodebug
attr datetime 20150304-18:35:04
attr experiment nodebug
attr inifile omnetpp.ini
attr iterationvars ""
attr iterationvars2 $repetition=8
attr measurement ""
attr network RSUExampleScenario
attr processid 3276
attr repetition 8
attr replication #8
attr resultdir results
attr runnumber 8
attr seedset 8

scalar RSUExampleScenario.rsu[0].appl 	NumberofCH 	17
scalar RSUExampleScenario.rsu[0].appl 	NumberofON 	45
scalar RSUExampleScenario.rsu[0].appl 	NumberofFN 	20
scalar RSUExampleScenario.rsu[0].appl 	meanClusterNodes 	2.6470588235294
scalar RSUExampleScenario.rsu[0].appl 	varClusterNodes 	0.83603943550305
scalar RSUExampleScenario.rsu[0].appl 	GSScycles 	8
