version 2
run nodebug-0-20150312-16:40:11-7620
attr configname nodebug
attr datetime 20150312-16:40:11
attr experiment nodebug
attr inifile omnetpp.ini
attr iterationvars ""
attr iterationvars2 $repetition=0
attr measurement ""
attr network RSUExampleScenario
attr processid 7620
attr repetition 0
attr replication #0
attr resultdir results
attr runnumber 0
attr seedset 0

