version 2
run nodebug-34-20150304-18:59:46-9572
attr configname nodebug
attr datetime 20150304-18:59:46
attr experiment nodebug
attr inifile omnetpp.ini
attr iterationvars ""
attr iterationvars2 $repetition=34
attr measurement ""
attr network RSUExampleScenario
attr processid 9572
attr repetition 34
attr replication #34
attr resultdir results
attr runnumber 34
attr seedset 34

scalar RSUExampleScenario.rsu[0].appl 	NumberofCH 	18
scalar RSUExampleScenario.rsu[0].appl 	NumberofON 	44
scalar RSUExampleScenario.rsu[0].appl 	NumberofFN 	20
scalar RSUExampleScenario.rsu[0].appl 	meanClusterNodes 	2.4444444444444
scalar RSUExampleScenario.rsu[0].appl 	varClusterNodes 	0.89580641647762
scalar RSUExampleScenario.rsu[0].appl 	GSScycles 	8
