version 2
run nodebug-81-20150304-19:43:54-6924
attr configname nodebug
attr datetime 20150304-19:43:54
attr experiment nodebug
attr inifile omnetpp.ini
attr iterationvars ""
attr iterationvars2 $repetition=81
attr measurement ""
attr network RSUExampleScenario
attr processid 6924
attr repetition 81
attr replication #81
attr resultdir results
attr runnumber 81
attr seedset 81

scalar RSUExampleScenario.rsu[0].appl 	NumberofCH 	19
scalar RSUExampleScenario.rsu[0].appl 	NumberofON 	49
scalar RSUExampleScenario.rsu[0].appl 	NumberofFN 	14
scalar RSUExampleScenario.rsu[0].appl 	meanClusterNodes 	2.5789473684211
scalar RSUExampleScenario.rsu[0].appl 	varClusterNodes 	0.74803528439747
scalar RSUExampleScenario.rsu[0].appl 	GSScycles 	8
