version 2
run nodebug-23-20150304-18:49:19-9676
attr configname nodebug
attr datetime 20150304-18:49:19
attr experiment nodebug
attr inifile omnetpp.ini
attr iterationvars ""
attr iterationvars2 $repetition=23
attr measurement ""
attr network RSUExampleScenario
attr processid 9676
attr repetition 23
attr replication #23
attr resultdir results
attr runnumber 23
attr seedset 23

scalar RSUExampleScenario.rsu[0].appl 	NumberofCH 	22
scalar RSUExampleScenario.rsu[0].appl 	NumberofON 	51
scalar RSUExampleScenario.rsu[0].appl 	NumberofFN 	9
scalar RSUExampleScenario.rsu[0].appl 	meanClusterNodes 	2.3181818181818
scalar RSUExampleScenario.rsu[0].appl 	varClusterNodes 	0.87315330510448
scalar RSUExampleScenario.rsu[0].appl 	GSScycles 	7
