version 2
run nodebug-13-20150304-18:39:48-9904
attr configname nodebug
attr datetime 20150304-18:39:48
attr experiment nodebug
attr inifile omnetpp.ini
attr iterationvars ""
attr iterationvars2 $repetition=13
attr measurement ""
attr network RSUExampleScenario
attr processid 9904
attr repetition 13
attr replication #13
attr resultdir results
attr runnumber 13
attr seedset 13

scalar RSUExampleScenario.rsu[0].appl 	NumberofCH 	22
scalar RSUExampleScenario.rsu[0].appl 	NumberofON 	55
scalar RSUExampleScenario.rsu[0].appl 	NumberofFN 	5
scalar RSUExampleScenario.rsu[0].appl 	meanClusterNodes 	2.5
scalar RSUExampleScenario.rsu[0].appl 	varClusterNodes 	0.83937205966452
scalar RSUExampleScenario.rsu[0].appl 	GSScycles 	7
