version 2
run nodebug-82-20150304-19:44:50-9840
attr configname nodebug
attr datetime 20150304-19:44:50
attr experiment nodebug
attr inifile omnetpp.ini
attr iterationvars ""
attr iterationvars2 $repetition=82
attr measurement ""
attr network RSUExampleScenario
attr processid 9840
attr repetition 82
attr replication #82
attr resultdir results
attr runnumber 82
attr seedset 82

scalar RSUExampleScenario.rsu[0].appl 	NumberofCH 	22
scalar RSUExampleScenario.rsu[0].appl 	NumberofON 	58
scalar RSUExampleScenario.rsu[0].appl 	NumberofFN 	2
scalar RSUExampleScenario.rsu[0].appl 	meanClusterNodes 	2.6363636363636
scalar RSUExampleScenario.rsu[0].appl 	varClusterNodes 	0.64282434653323
scalar RSUExampleScenario.rsu[0].appl 	GSScycles 	8
