version 2
run nodebug-28-20150304-18:54:04-4112
attr configname nodebug
attr datetime 20150304-18:54:04
attr experiment nodebug
attr inifile omnetpp.ini
attr iterationvars ""
attr iterationvars2 $repetition=28
attr measurement ""
attr network RSUExampleScenario
attr processid 4112
attr repetition 28
attr replication #28
attr resultdir results
attr runnumber 28
attr seedset 28

scalar RSUExampleScenario.rsu[0].appl 	NumberofCH 	23
scalar RSUExampleScenario.rsu[0].appl 	NumberofON 	55
scalar RSUExampleScenario.rsu[0].appl 	NumberofFN 	4
scalar RSUExampleScenario.rsu[0].appl 	meanClusterNodes 	2.3913043478261
scalar RSUExampleScenario.rsu[0].appl 	varClusterNodes 	0.8717364198158
scalar RSUExampleScenario.rsu[0].appl 	GSScycles 	10
