version 2
run nodebug-43-20150304-19:08:19-8508
attr configname nodebug
attr datetime 20150304-19:08:19
attr experiment nodebug
attr inifile omnetpp.ini
attr iterationvars ""
attr iterationvars2 $repetition=43
attr measurement ""
attr network RSUExampleScenario
attr processid 8508
attr repetition 43
attr replication #43
attr resultdir results
attr runnumber 43
attr seedset 43

scalar RSUExampleScenario.rsu[0].appl 	NumberofCH 	16
scalar RSUExampleScenario.rsu[0].appl 	NumberofON 	48
scalar RSUExampleScenario.rsu[0].appl 	NumberofFN 	18
scalar RSUExampleScenario.rsu[0].appl 	meanClusterNodes 	3
scalar RSUExampleScenario.rsu[0].appl 	varClusterNodes 	0
scalar RSUExampleScenario.rsu[0].appl 	GSScycles 	10
