version 2
run nodebug-94-20150304-19:56:03-10160
attr configname nodebug
attr datetime 20150304-19:56:03
attr experiment nodebug
attr inifile omnetpp.ini
attr iterationvars ""
attr iterationvars2 $repetition=94
attr measurement ""
attr network RSUExampleScenario
attr processid 10160
attr repetition 94
attr replication #94
attr resultdir results
attr runnumber 94
attr seedset 94

scalar RSUExampleScenario.rsu[0].appl 	NumberofCH 	13
scalar RSUExampleScenario.rsu[0].appl 	NumberofON 	36
scalar RSUExampleScenario.rsu[0].appl 	NumberofFN 	33
scalar RSUExampleScenario.rsu[0].appl 	meanClusterNodes 	2.7692307692308
scalar RSUExampleScenario.rsu[0].appl 	varClusterNodes 	0.57563959796522
scalar RSUExampleScenario.rsu[0].appl 	GSScycles 	9
