version 2
run nodebug-0-20150313-17:02:38-7548
attr configname nodebug
attr datetime 20150313-17:02:38
attr experiment nodebug
attr inifile omnetpp.ini
attr iterationvars ""
attr iterationvars2 $repetition=0
attr measurement ""
attr network RSUExampleScenario
attr processid 7548
attr repetition 0
attr replication #0
attr resultdir results
attr runnumber 0
attr seedset 0

scalar RSUExampleScenario.rsu[0].appl 	NumberofCH 	23
scalar RSUExampleScenario.rsu[0].appl 	NumberofON 	48
scalar RSUExampleScenario.rsu[0].appl 	NumberofFN 	29
scalar RSUExampleScenario.rsu[0].appl 	meanClusterNodes 	23
scalar RSUExampleScenario.rsu[0].appl 	varClusterNodes 	4.7958315233127
scalar RSUExampleScenario.rsu[0].appl 	sumCHutility 	705.56431703398
scalar RSUExampleScenario.rsu[0].appl 	meanCHutility 	23
scalar RSUExampleScenario.rsu[0].appl 	varCHutility 	4.7958315233127
scalar RSUExampleScenario.rsu[0].appl 	sumDiffCHutility 	74.233526535191
scalar RSUExampleScenario.rsu[0].appl 	meanDiffCHutility 	23
scalar RSUExampleScenario.rsu[0].appl 	varDiffCHutility 	4.7958315233127
scalar RSUExampleScenario.rsu[0].appl 	expectedCHutility 	779.79784356918
scalar RSUExampleScenario.rsu[0].appl 	meanExpectedCHutility 	23
scalar RSUExampleScenario.rsu[0].appl 	varExpectedCHutility 	4.7958315233127
