version 2
run nodebug-41-20150304-19:06:25-1840
attr configname nodebug
attr datetime 20150304-19:06:25
attr experiment nodebug
attr inifile omnetpp.ini
attr iterationvars ""
attr iterationvars2 $repetition=41
attr measurement ""
attr network RSUExampleScenario
attr processid 1840
attr repetition 41
attr replication #41
attr resultdir results
attr runnumber 41
attr seedset 41

scalar RSUExampleScenario.rsu[0].appl 	NumberofCH 	19
scalar RSUExampleScenario.rsu[0].appl 	NumberofON 	51
scalar RSUExampleScenario.rsu[0].appl 	NumberofFN 	12
scalar RSUExampleScenario.rsu[0].appl 	meanClusterNodes 	2.6842105263158
scalar RSUExampleScenario.rsu[0].appl 	varClusterNodes 	0.79819741516332
scalar RSUExampleScenario.rsu[0].appl 	GSScycles 	9
