version 2
run nodebug-31-20150304-18:56:55-8036
attr configname nodebug
attr datetime 20150304-18:56:55
attr experiment nodebug
attr inifile omnetpp.ini
attr iterationvars ""
attr iterationvars2 $repetition=31
attr measurement ""
attr network RSUExampleScenario
attr processid 8036
attr repetition 31
attr replication #31
attr resultdir results
attr runnumber 31
attr seedset 31

scalar RSUExampleScenario.rsu[0].appl 	NumberofCH 	20
scalar RSUExampleScenario.rsu[0].appl 	NumberofON 	48
scalar RSUExampleScenario.rsu[0].appl 	NumberofFN 	14
scalar RSUExampleScenario.rsu[0].appl 	meanClusterNodes 	2.4
scalar RSUExampleScenario.rsu[0].appl 	varClusterNodes 	1.113552872566
scalar RSUExampleScenario.rsu[0].appl 	GSScycles 	7
