version 2
run nodebug-53-20150304-19:17:46-7436
attr configname nodebug
attr datetime 20150304-19:17:46
attr experiment nodebug
attr inifile omnetpp.ini
attr iterationvars ""
attr iterationvars2 $repetition=53
attr measurement ""
attr network RSUExampleScenario
attr processid 7436
attr repetition 53
attr replication #53
attr resultdir results
attr runnumber 53
attr seedset 53

scalar RSUExampleScenario.rsu[0].appl 	NumberofCH 	14
scalar RSUExampleScenario.rsu[0].appl 	NumberofON 	42
scalar RSUExampleScenario.rsu[0].appl 	NumberofFN 	26
scalar RSUExampleScenario.rsu[0].appl 	meanClusterNodes 	3
scalar RSUExampleScenario.rsu[0].appl 	varClusterNodes 	0
scalar RSUExampleScenario.rsu[0].appl 	GSScycles 	9
