version 2
run nodebug-95-20150304-19:56:59-9368
attr configname nodebug
attr datetime 20150304-19:56:59
attr experiment nodebug
attr inifile omnetpp.ini
attr iterationvars ""
attr iterationvars2 $repetition=95
attr measurement ""
attr network RSUExampleScenario
attr processid 9368
attr repetition 95
attr replication #95
attr resultdir results
attr runnumber 95
attr seedset 95

scalar RSUExampleScenario.rsu[0].appl 	NumberofCH 	17
scalar RSUExampleScenario.rsu[0].appl 	NumberofON 	45
scalar RSUExampleScenario.rsu[0].appl 	NumberofFN 	20
scalar RSUExampleScenario.rsu[0].appl 	meanClusterNodes 	2.6470588235294
scalar RSUExampleScenario.rsu[0].appl 	varClusterNodes 	0.83603943550305
scalar RSUExampleScenario.rsu[0].appl 	GSScycles 	11
