version 2
run nodebug-18-20150304-18:44:33-9304
attr configname nodebug
attr datetime 20150304-18:44:33
attr experiment nodebug
attr inifile omnetpp.ini
attr iterationvars ""
attr iterationvars2 $repetition=18
attr measurement ""
attr network RSUExampleScenario
attr processid 9304
attr repetition 18
attr replication #18
attr resultdir results
attr runnumber 18
attr seedset 18

scalar RSUExampleScenario.rsu[0].appl 	NumberofCH 	21
scalar RSUExampleScenario.rsu[0].appl 	NumberofON 	51
scalar RSUExampleScenario.rsu[0].appl 	NumberofFN 	10
scalar RSUExampleScenario.rsu[0].appl 	meanClusterNodes 	2.4285714285714
scalar RSUExampleScenario.rsu[0].appl 	varClusterNodes 	0.84916926191081
scalar RSUExampleScenario.rsu[0].appl 	GSScycles 	7
