version 2
run nodebug-21-20150304-18:47:24-1264
attr configname nodebug
attr datetime 20150304-18:47:24
attr experiment nodebug
attr inifile omnetpp.ini
attr iterationvars ""
attr iterationvars2 $repetition=21
attr measurement ""
attr network RSUExampleScenario
attr processid 1264
attr repetition 21
attr replication #21
attr resultdir results
attr runnumber 21
attr seedset 21

scalar RSUExampleScenario.rsu[0].appl 	NumberofCH 	24
scalar RSUExampleScenario.rsu[0].appl 	NumberofON 	52
scalar RSUExampleScenario.rsu[0].appl 	NumberofFN 	6
scalar RSUExampleScenario.rsu[0].appl 	meanClusterNodes 	2.1666666666667
scalar RSUExampleScenario.rsu[0].appl 	varClusterNodes 	1.1055415967851
scalar RSUExampleScenario.rsu[0].appl 	GSScycles 	3
