version 2
run nodebug-16-20150304-18:42:39-4212
attr configname nodebug
attr datetime 20150304-18:42:39
attr experiment nodebug
attr inifile omnetpp.ini
attr iterationvars ""
attr iterationvars2 $repetition=16
attr measurement ""
attr network RSUExampleScenario
attr processid 4212
attr repetition 16
attr replication #16
attr resultdir results
attr runnumber 16
attr seedset 16

scalar RSUExampleScenario.rsu[0].appl 	NumberofCH 	19
scalar RSUExampleScenario.rsu[0].appl 	NumberofON 	51
scalar RSUExampleScenario.rsu[0].appl 	NumberofFN 	12
scalar RSUExampleScenario.rsu[0].appl 	meanClusterNodes 	2.6842105263158
scalar RSUExampleScenario.rsu[0].appl 	varClusterNodes 	0.72928455055532
scalar RSUExampleScenario.rsu[0].appl 	GSScycles 	6
