version 2
run nodebug-62-20150304-19:26:10-1660
attr configname nodebug
attr datetime 20150304-19:26:10
attr experiment nodebug
attr inifile omnetpp.ini
attr iterationvars ""
attr iterationvars2 $repetition=62
attr measurement ""
attr network RSUExampleScenario
attr processid 1660
attr repetition 62
attr replication #62
attr resultdir results
attr runnumber 62
attr seedset 62

scalar RSUExampleScenario.rsu[0].appl 	NumberofCH 	20
scalar RSUExampleScenario.rsu[0].appl 	NumberofON 	51
scalar RSUExampleScenario.rsu[0].appl 	NumberofFN 	11
scalar RSUExampleScenario.rsu[0].appl 	meanClusterNodes 	2.55
scalar RSUExampleScenario.rsu[0].appl 	varClusterNodes 	0.58949130612758
scalar RSUExampleScenario.rsu[0].appl 	GSScycles 	8
