version 2
run nodebug-69-20150304-19:32:42-1364
attr configname nodebug
attr datetime 20150304-19:32:42
attr experiment nodebug
attr inifile omnetpp.ini
attr iterationvars ""
attr iterationvars2 $repetition=69
attr measurement ""
attr network RSUExampleScenario
attr processid 1364
attr repetition 69
attr replication #69
attr resultdir results
attr runnumber 69
attr seedset 69

scalar RSUExampleScenario.rsu[0].appl 	NumberofCH 	23
scalar RSUExampleScenario.rsu[0].appl 	NumberofON 	52
scalar RSUExampleScenario.rsu[0].appl 	NumberofFN 	7
scalar RSUExampleScenario.rsu[0].appl 	meanClusterNodes 	2.2608695652174
scalar RSUExampleScenario.rsu[0].appl 	varClusterNodes 	0.98763623405222
scalar RSUExampleScenario.rsu[0].appl 	GSScycles 	8
