version 2
run nodebug-52-20150304-19:16:50-4012
attr configname nodebug
attr datetime 20150304-19:16:50
attr experiment nodebug
attr inifile omnetpp.ini
attr iterationvars ""
attr iterationvars2 $repetition=52
attr measurement ""
attr network RSUExampleScenario
attr processid 4012
attr repetition 52
attr replication #52
attr resultdir results
attr runnumber 52
attr seedset 52

scalar RSUExampleScenario.rsu[0].appl 	NumberofCH 	19
scalar RSUExampleScenario.rsu[0].appl 	NumberofON 	52
scalar RSUExampleScenario.rsu[0].appl 	NumberofFN 	11
scalar RSUExampleScenario.rsu[0].appl 	meanClusterNodes 	2.7368421052632
scalar RSUExampleScenario.rsu[0].appl 	varClusterNodes 	0.63594978808392
scalar RSUExampleScenario.rsu[0].appl 	GSScycles 	9
