version 2
run statisticRVV-218-20150326-07:20:42-6316
attr c 4
attr configname statisticRVV
attr datetime 20150326-07:20:42
attr experiment statisticRVV
attr inifile omnetpp.ini
attr iterationvars "$sc=\"erlangen-medium.launchd.xml\", $p=1/5, $c=4"
attr iterationvars2 "$sc=\"erlangen-medium.launchd.xml\", $p=1/5, $c=4, $repetition=8"
attr measurement "$sc=\"erlangen-medium.launchd.xml\", $p=1/5, $c=4"
attr network RSUExampleScenario
attr p 1/5
attr processid 6316
attr repetition 8
attr replication #8
attr resultdir results
attr runnumber 218
attr sc "\"erlangen-medium.launchd.xml\""
attr seedset 218

scalar . 	c 	4
scalar RSUExampleScenario.node[0].veinsmobility 	startTime 	0.1
scalar RSUExampleScenario.node[0].veinsmobility 	totalTime 	263.9
scalar RSUExampleScenario.node[0].veinsmobility 	stopTime 	264.1
scalar RSUExampleScenario.node[0].veinsmobility 	minSpeed 	0.25565470207273
scalar RSUExampleScenario.node[0].veinsmobility 	maxSpeed 	13.999948826949
scalar RSUExampleScenario.node[0].veinsmobility 	totalDistance 	3409.8637439746
scalar RSUExampleScenario.node[0].veinsmobility 	totalCO2Emission 	692.63121374791
scalar RSUExampleScenario.node[1].veinsmobility 	startTime 	3.1
scalar RSUExampleScenario.node[1].veinsmobility 	totalTime 	264.9
scalar RSUExampleScenario.node[1].veinsmobility 	stopTime 	268.1
scalar RSUExampleScenario.node[1].veinsmobility 	minSpeed 	0.25174516087119
scalar RSUExampleScenario.node[1].veinsmobility 	maxSpeed 	13.999972582594
scalar RSUExampleScenario.node[1].veinsmobility 	totalDistance 	3409.7318951332
scalar RSUExampleScenario.node[1].veinsmobility 	totalCO2Emission 	693.74969132076
scalar RSUExampleScenario.node[2].veinsmobility 	startTime 	6.1
scalar RSUExampleScenario.node[2].veinsmobility 	totalTime 	265.7
scalar RSUExampleScenario.node[2].veinsmobility 	stopTime 	271.9
scalar RSUExampleScenario.node[2].veinsmobility 	minSpeed 	0.25614970056433
scalar RSUExampleScenario.node[2].veinsmobility 	maxSpeed 	13.999603343522
scalar RSUExampleScenario.node[2].veinsmobility 	totalDistance 	3409.5268422758
scalar RSUExampleScenario.node[2].veinsmobility 	totalCO2Emission 	688.76293466483
scalar RSUExampleScenario.node[3].veinsmobility 	startTime 	9.1
scalar RSUExampleScenario.node[3].veinsmobility 	totalTime 	266.2
scalar RSUExampleScenario.node[3].veinsmobility 	stopTime 	275.4
scalar RSUExampleScenario.node[3].veinsmobility 	minSpeed 	0.2587144567112
scalar RSUExampleScenario.node[3].veinsmobility 	maxSpeed 	13.999945750269
scalar RSUExampleScenario.node[3].veinsmobility 	totalDistance 	3409.4183767509
scalar RSUExampleScenario.node[3].veinsmobility 	totalCO2Emission 	692.4729459357
scalar RSUExampleScenario.node[4].veinsmobility 	startTime 	12.1
scalar RSUExampleScenario.node[4].veinsmobility 	totalTime 	266.5
scalar RSUExampleScenario.node[4].veinsmobility 	stopTime 	278.7
scalar RSUExampleScenario.node[4].veinsmobility 	minSpeed 	0.2597695055753
scalar RSUExampleScenario.node[4].veinsmobility 	maxSpeed 	13.999803821121
scalar RSUExampleScenario.node[4].veinsmobility 	totalDistance 	3413.4621031415
scalar RSUExampleScenario.node[4].veinsmobility 	totalCO2Emission 	694.6406639126
scalar RSUExampleScenario.node[5].veinsmobility 	startTime 	15.1
scalar RSUExampleScenario.node[5].veinsmobility 	totalTime 	266.7
scalar RSUExampleScenario.node[5].veinsmobility 	stopTime 	281.9
scalar RSUExampleScenario.node[5].veinsmobility 	minSpeed 	0.25495295740734
scalar RSUExampleScenario.node[5].veinsmobility 	maxSpeed 	13.999986452686
scalar RSUExampleScenario.node[5].veinsmobility 	totalDistance 	3409.2197820855
scalar RSUExampleScenario.node[5].veinsmobility 	totalCO2Emission 	694.49976731556
scalar RSUExampleScenario.node[6].veinsmobility 	startTime 	18.1
scalar RSUExampleScenario.node[6].veinsmobility 	totalTime 	266.9
scalar RSUExampleScenario.node[6].veinsmobility 	stopTime 	285.1
scalar RSUExampleScenario.node[6].veinsmobility 	minSpeed 	0.25102614191943
scalar RSUExampleScenario.node[6].veinsmobility 	maxSpeed 	13.999950311352
scalar RSUExampleScenario.node[6].veinsmobility 	totalDistance 	3409.3814153729
scalar RSUExampleScenario.node[6].veinsmobility 	totalCO2Emission 	690.24701177506
scalar RSUExampleScenario.node[7].veinsmobility 	startTime 	21.1
scalar RSUExampleScenario.node[7].veinsmobility 	totalTime 	267
scalar RSUExampleScenario.node[7].veinsmobility 	stopTime 	288.2
scalar RSUExampleScenario.node[7].veinsmobility 	minSpeed 	0.2553166187834
scalar RSUExampleScenario.node[7].veinsmobility 	maxSpeed 	13.999990497821
scalar RSUExampleScenario.node[7].veinsmobility 	totalDistance 	3413.4410525882
scalar RSUExampleScenario.node[7].veinsmobility 	totalCO2Emission 	692.11822860964
scalar RSUExampleScenario.node[8].veinsmobility 	startTime 	24.1
scalar RSUExampleScenario.node[8].veinsmobility 	totalTime 	267.1
scalar RSUExampleScenario.node[8].veinsmobility 	stopTime 	291.3
scalar RSUExampleScenario.node[8].veinsmobility 	minSpeed 	0.25504985984555
scalar RSUExampleScenario.node[8].veinsmobility 	maxSpeed 	13.999965162671
scalar RSUExampleScenario.node[8].veinsmobility 	totalDistance 	3409.6016677477
scalar RSUExampleScenario.node[8].veinsmobility 	totalCO2Emission 	695.88134310904
scalar RSUExampleScenario.node[9].veinsmobility 	startTime 	27.1
scalar RSUExampleScenario.node[9].veinsmobility 	totalTime 	267.2
scalar RSUExampleScenario.node[9].veinsmobility 	stopTime 	294.4
scalar RSUExampleScenario.node[9].veinsmobility 	minSpeed 	0.25029928102344
scalar RSUExampleScenario.node[9].veinsmobility 	maxSpeed 	13.999923938252
scalar RSUExampleScenario.node[9].veinsmobility 	totalDistance 	3413.8828750241
scalar RSUExampleScenario.node[9].veinsmobility 	totalCO2Emission 	690.60978899661
scalar RSUExampleScenario.node[10].veinsmobility 	startTime 	30.1
scalar RSUExampleScenario.node[10].veinsmobility 	totalTime 	267.2
scalar RSUExampleScenario.node[10].veinsmobility 	stopTime 	297.4
scalar RSUExampleScenario.node[10].veinsmobility 	minSpeed 	0.25634844847792
scalar RSUExampleScenario.node[10].veinsmobility 	maxSpeed 	13.999996052904
scalar RSUExampleScenario.node[10].veinsmobility 	totalDistance 	3409.4657753082
scalar RSUExampleScenario.node[10].veinsmobility 	totalCO2Emission 	689.125991502
scalar RSUExampleScenario.node[11].veinsmobility 	startTime 	33.1
scalar RSUExampleScenario.node[11].veinsmobility 	totalTime 	267.3
scalar RSUExampleScenario.node[11].veinsmobility 	stopTime 	300.5
scalar RSUExampleScenario.node[11].veinsmobility 	minSpeed 	0.25540995752974
scalar RSUExampleScenario.node[11].veinsmobility 	maxSpeed 	13.99979852156
scalar RSUExampleScenario.node[11].veinsmobility 	totalDistance 	3414.1665777843
scalar RSUExampleScenario.node[11].veinsmobility 	totalCO2Emission 	689.87067724424
scalar RSUExampleScenario.node[12].veinsmobility 	startTime 	36.1
scalar RSUExampleScenario.node[12].veinsmobility 	totalTime 	267.3
scalar RSUExampleScenario.node[12].veinsmobility 	stopTime 	303.5
scalar RSUExampleScenario.node[12].veinsmobility 	minSpeed 	0.25817257834924
scalar RSUExampleScenario.node[12].veinsmobility 	maxSpeed 	13.999821838834
scalar RSUExampleScenario.node[12].veinsmobility 	totalDistance 	3409.1981545007
scalar RSUExampleScenario.node[12].veinsmobility 	totalCO2Emission 	691.30868969483
scalar RSUExampleScenario.node[13].veinsmobility 	startTime 	39.1
scalar RSUExampleScenario.node[13].veinsmobility 	totalTime 	267.4
scalar RSUExampleScenario.node[13].veinsmobility 	stopTime 	306.6
scalar RSUExampleScenario.node[13].veinsmobility 	minSpeed 	0.25323564125877
scalar RSUExampleScenario.node[13].veinsmobility 	maxSpeed 	13.999962045311
scalar RSUExampleScenario.node[13].veinsmobility 	totalDistance 	3414.2324700801
scalar RSUExampleScenario.node[13].veinsmobility 	totalCO2Emission 	689.2143800035
scalar RSUExampleScenario.node[14].veinsmobility 	startTime 	42.1
scalar RSUExampleScenario.node[14].veinsmobility 	totalTime 	267.5
scalar RSUExampleScenario.node[14].veinsmobility 	stopTime 	309.7
scalar RSUExampleScenario.node[14].veinsmobility 	minSpeed 	0.25528563550371
scalar RSUExampleScenario.node[14].veinsmobility 	maxSpeed 	13.999971248806
scalar RSUExampleScenario.node[14].veinsmobility 	totalDistance 	3409.9210146381
scalar RSUExampleScenario.node[14].veinsmobility 	totalCO2Emission 	690.2950108145
scalar RSUExampleScenario.node[15].veinsmobility 	startTime 	45.1
scalar RSUExampleScenario.node[15].veinsmobility 	totalTime 	267.6
scalar RSUExampleScenario.node[15].veinsmobility 	stopTime 	312.8
scalar RSUExampleScenario.node[15].veinsmobility 	minSpeed 	0.24935820485651
scalar RSUExampleScenario.node[15].veinsmobility 	maxSpeed 	13.999986922233
scalar RSUExampleScenario.node[15].veinsmobility 	totalDistance 	3409.9219121864
scalar RSUExampleScenario.node[15].veinsmobility 	totalCO2Emission 	694.2720832191
scalar RSUExampleScenario.node[16].veinsmobility 	startTime 	48.1
scalar RSUExampleScenario.node[16].veinsmobility 	totalTime 	267.7
scalar RSUExampleScenario.node[16].veinsmobility 	stopTime 	315.9
scalar RSUExampleScenario.node[16].veinsmobility 	minSpeed 	0.25087012005248
scalar RSUExampleScenario.node[16].veinsmobility 	maxSpeed 	13.99994795735
scalar RSUExampleScenario.node[16].veinsmobility 	totalDistance 	3413.4325088939
scalar RSUExampleScenario.node[16].veinsmobility 	totalCO2Emission 	691.71768183889
scalar RSUExampleScenario.node[17].veinsmobility 	startTime 	51.1
scalar RSUExampleScenario.node[17].veinsmobility 	totalTime 	267.8
scalar RSUExampleScenario.node[17].veinsmobility 	stopTime 	319
scalar RSUExampleScenario.node[17].veinsmobility 	minSpeed 	0.24800509578851
scalar RSUExampleScenario.node[17].veinsmobility 	maxSpeed 	13.999995261184
scalar RSUExampleScenario.node[17].veinsmobility 	totalDistance 	3409.6163146231
scalar RSUExampleScenario.node[17].veinsmobility 	totalCO2Emission 	688.88480168193
scalar RSUExampleScenario.node[18].veinsmobility 	startTime 	54.1
scalar RSUExampleScenario.node[18].veinsmobility 	totalTime 	267.9
scalar RSUExampleScenario.node[18].veinsmobility 	stopTime 	322.1
scalar RSUExampleScenario.node[18].veinsmobility 	minSpeed 	0.25503884852864
scalar RSUExampleScenario.node[18].veinsmobility 	maxSpeed 	13.99999366255
scalar RSUExampleScenario.node[18].veinsmobility 	totalDistance 	3413.7068006831
scalar RSUExampleScenario.node[18].veinsmobility 	totalCO2Emission 	691.33379488072
scalar RSUExampleScenario.node[19].veinsmobility 	startTime 	57.1
scalar RSUExampleScenario.node[19].veinsmobility 	totalTime 	268.1
scalar RSUExampleScenario.node[19].veinsmobility 	stopTime 	325.3
scalar RSUExampleScenario.node[19].veinsmobility 	minSpeed 	0.25116280964762
scalar RSUExampleScenario.node[19].veinsmobility 	maxSpeed 	13.999978352126
scalar RSUExampleScenario.node[19].veinsmobility 	totalDistance 	3409.7710002633
scalar RSUExampleScenario.node[19].veinsmobility 	totalCO2Emission 	692.16810190935
scalar RSUExampleScenario.node[20].veinsmobility 	startTime 	60.1
scalar RSUExampleScenario.node[20].veinsmobility 	totalTime 	268.3
scalar RSUExampleScenario.node[20].veinsmobility 	stopTime 	328.5
scalar RSUExampleScenario.node[20].veinsmobility 	minSpeed 	0.2471812501133
scalar RSUExampleScenario.node[20].veinsmobility 	maxSpeed 	13.99999424306
scalar RSUExampleScenario.node[20].veinsmobility 	totalDistance 	3413.8388541449
scalar RSUExampleScenario.node[20].veinsmobility 	totalCO2Emission 	697.12407839506
scalar RSUExampleScenario.node[21].veinsmobility 	startTime 	63.1
scalar RSUExampleScenario.node[21].veinsmobility 	totalTime 	268.6
scalar RSUExampleScenario.node[21].veinsmobility 	stopTime 	331.8
scalar RSUExampleScenario.node[21].veinsmobility 	minSpeed 	0.25264351516846
scalar RSUExampleScenario.node[21].veinsmobility 	maxSpeed 	13.999866396
scalar RSUExampleScenario.node[21].veinsmobility 	totalDistance 	3410.055336631
scalar RSUExampleScenario.node[21].veinsmobility 	totalCO2Emission 	689.47844376213
scalar RSUExampleScenario.node[22].veinsmobility 	startTime 	66.1
scalar RSUExampleScenario.node[22].veinsmobility 	totalTime 	268.9
scalar RSUExampleScenario.node[22].veinsmobility 	stopTime 	335.1
scalar RSUExampleScenario.node[22].veinsmobility 	minSpeed 	0.25625519242673
scalar RSUExampleScenario.node[22].veinsmobility 	maxSpeed 	13.999982150849
scalar RSUExampleScenario.node[22].veinsmobility 	totalDistance 	3413.6896135209
scalar RSUExampleScenario.node[22].veinsmobility 	totalCO2Emission 	688.67175885961
scalar RSUExampleScenario.node[23].veinsmobility 	startTime 	69.1
scalar RSUExampleScenario.node[23].veinsmobility 	totalTime 	269.3
scalar RSUExampleScenario.node[23].veinsmobility 	stopTime 	338.5
scalar RSUExampleScenario.node[23].veinsmobility 	minSpeed 	0.25741502023023
scalar RSUExampleScenario.node[23].veinsmobility 	maxSpeed 	13.999852636568
scalar RSUExampleScenario.node[23].veinsmobility 	totalDistance 	3409.966915808
scalar RSUExampleScenario.node[23].veinsmobility 	totalCO2Emission 	694.95454432468
scalar RSUExampleScenario.node[24].veinsmobility 	startTime 	72.1
scalar RSUExampleScenario.node[24].veinsmobility 	totalTime 	269.7
scalar RSUExampleScenario.node[24].veinsmobility 	stopTime 	341.9
scalar RSUExampleScenario.node[24].veinsmobility 	minSpeed 	0.25997671786393
scalar RSUExampleScenario.node[24].veinsmobility 	maxSpeed 	13.999952645649
scalar RSUExampleScenario.node[24].veinsmobility 	totalDistance 	3409.9014120853
scalar RSUExampleScenario.node[24].veinsmobility 	totalCO2Emission 	692.25607051337
scalar RSUExampleScenario.node[25].veinsmobility 	startTime 	75.1
scalar RSUExampleScenario.node[25].veinsmobility 	totalTime 	270.2
scalar RSUExampleScenario.node[25].veinsmobility 	stopTime 	345.4
scalar RSUExampleScenario.node[25].veinsmobility 	minSpeed 	0.25039446868352
scalar RSUExampleScenario.node[25].veinsmobility 	maxSpeed 	13.999984144934
scalar RSUExampleScenario.node[25].veinsmobility 	totalDistance 	3413.6562203789
scalar RSUExampleScenario.node[25].veinsmobility 	totalCO2Emission 	692.28273124029
scalar RSUExampleScenario.node[26].veinsmobility 	startTime 	78.1
scalar RSUExampleScenario.node[26].veinsmobility 	totalTime 	270.8
scalar RSUExampleScenario.node[26].veinsmobility 	stopTime 	349
scalar RSUExampleScenario.node[26].veinsmobility 	minSpeed 	0.24923338869656
scalar RSUExampleScenario.node[26].veinsmobility 	maxSpeed 	13.999956413226
scalar RSUExampleScenario.node[26].veinsmobility 	totalDistance 	3410.0071861712
scalar RSUExampleScenario.node[26].veinsmobility 	totalCO2Emission 	691.78066766205
scalar RSUExampleScenario.node[27].veinsmobility 	startTime 	81.1
scalar RSUExampleScenario.node[27].veinsmobility 	totalTime 	271.4
scalar RSUExampleScenario.node[27].veinsmobility 	stopTime 	352.6
scalar RSUExampleScenario.node[27].veinsmobility 	minSpeed 	0.25331883166172
scalar RSUExampleScenario.node[27].veinsmobility 	maxSpeed 	13.99995832362
scalar RSUExampleScenario.node[27].veinsmobility 	totalDistance 	3414.1866797382
scalar RSUExampleScenario.node[27].veinsmobility 	totalCO2Emission 	694.39469054552
scalar RSUExampleScenario.node[28].veinsmobility 	startTime 	84.1
scalar RSUExampleScenario.node[28].veinsmobility 	totalTime 	272
scalar RSUExampleScenario.node[28].veinsmobility 	stopTime 	356.2
scalar RSUExampleScenario.node[28].veinsmobility 	minSpeed 	0.25464552078745
scalar RSUExampleScenario.node[28].veinsmobility 	maxSpeed 	13.999966042803
scalar RSUExampleScenario.node[28].veinsmobility 	totalDistance 	3409.54185205
scalar RSUExampleScenario.node[28].veinsmobility 	totalCO2Emission 	694.30862985451
scalar RSUExampleScenario.node[29].veinsmobility 	startTime 	87.1
scalar RSUExampleScenario.node[29].veinsmobility 	totalTime 	272.6
scalar RSUExampleScenario.node[29].veinsmobility 	stopTime 	359.8
scalar RSUExampleScenario.node[29].veinsmobility 	minSpeed 	0.25977583672036
scalar RSUExampleScenario.node[29].veinsmobility 	maxSpeed 	13.999970508057
scalar RSUExampleScenario.node[29].veinsmobility 	totalDistance 	3413.5767773491
scalar RSUExampleScenario.node[29].veinsmobility 	totalCO2Emission 	689.50979855405
scalar RSUExampleScenario.node[30].veinsmobility 	startTime 	90.1
scalar RSUExampleScenario.node[30].veinsmobility 	totalTime 	273.2
scalar RSUExampleScenario.node[30].veinsmobility 	stopTime 	363.4
scalar RSUExampleScenario.node[30].veinsmobility 	minSpeed 	0.25818448760221
scalar RSUExampleScenario.node[30].veinsmobility 	maxSpeed 	13.999960565963
scalar RSUExampleScenario.node[30].veinsmobility 	totalDistance 	3409.6153604914
scalar RSUExampleScenario.node[30].veinsmobility 	totalCO2Emission 	696.52183162976
scalar RSUExampleScenario.node[31].veinsmobility 	startTime 	93.1
scalar RSUExampleScenario.node[31].veinsmobility 	totalTime 	273.9
scalar RSUExampleScenario.node[31].veinsmobility 	stopTime 	367.1
scalar RSUExampleScenario.node[31].veinsmobility 	minSpeed 	0.25052984817605
scalar RSUExampleScenario.node[31].veinsmobility 	maxSpeed 	13.999935043212
scalar RSUExampleScenario.node[31].veinsmobility 	totalDistance 	3413.8840723167
scalar RSUExampleScenario.node[31].veinsmobility 	totalCO2Emission 	696.60115810674
scalar RSUExampleScenario.node[32].veinsmobility 	startTime 	96.1
scalar RSUExampleScenario.node[32].veinsmobility 	totalTime 	274.6
scalar RSUExampleScenario.node[32].veinsmobility 	stopTime 	370.8
scalar RSUExampleScenario.node[32].veinsmobility 	minSpeed 	0.25294385978789
scalar RSUExampleScenario.node[32].veinsmobility 	maxSpeed 	13.999899297087
scalar RSUExampleScenario.node[32].veinsmobility 	totalDistance 	3409.4849920397
scalar RSUExampleScenario.node[32].veinsmobility 	totalCO2Emission 	696.15661873885
scalar RSUExampleScenario.node[33].veinsmobility 	startTime 	99.1
scalar RSUExampleScenario.node[33].veinsmobility 	totalTime 	275.4
scalar RSUExampleScenario.node[33].veinsmobility 	stopTime 	374.6
scalar RSUExampleScenario.node[33].veinsmobility 	minSpeed 	0.25468023498659
scalar RSUExampleScenario.node[33].veinsmobility 	maxSpeed 	13.999681768261
scalar RSUExampleScenario.node[33].veinsmobility 	totalDistance 	3413.6870780529
scalar RSUExampleScenario.node[33].veinsmobility 	totalCO2Emission 	694.68261191312
scalar RSUExampleScenario.node[34].veinsmobility 	startTime 	102.1
scalar RSUExampleScenario.node[34].veinsmobility 	totalTime 	276.1
scalar RSUExampleScenario.node[34].veinsmobility 	stopTime 	378.3
scalar RSUExampleScenario.node[34].veinsmobility 	minSpeed 	0.25807597405673
scalar RSUExampleScenario.node[34].veinsmobility 	maxSpeed 	13.999929952016
scalar RSUExampleScenario.node[34].veinsmobility 	totalDistance 	3409.7701270253
scalar RSUExampleScenario.node[34].veinsmobility 	totalCO2Emission 	698.13982638446
scalar RSUExampleScenario.node[35].veinsmobility 	startTime 	105.1
scalar RSUExampleScenario.node[35].veinsmobility 	totalTime 	276.8
scalar RSUExampleScenario.node[35].veinsmobility 	stopTime 	382
scalar RSUExampleScenario.node[35].veinsmobility 	minSpeed 	0.25085457226704
scalar RSUExampleScenario.node[35].veinsmobility 	maxSpeed 	13.999854776605
scalar RSUExampleScenario.node[35].veinsmobility 	totalDistance 	3413.8134273862
scalar RSUExampleScenario.node[35].veinsmobility 	totalCO2Emission 	698.22642262792
scalar RSUExampleScenario.node[36].veinsmobility 	startTime 	108.1
scalar RSUExampleScenario.node[36].veinsmobility 	totalTime 	277.5
scalar RSUExampleScenario.node[36].veinsmobility 	stopTime 	385.7
scalar RSUExampleScenario.node[36].veinsmobility 	minSpeed 	0.25589324123715
scalar RSUExampleScenario.node[36].veinsmobility 	maxSpeed 	13.999940809566
scalar RSUExampleScenario.node[36].veinsmobility 	totalDistance 	3409.9433927792
scalar RSUExampleScenario.node[36].veinsmobility 	totalCO2Emission 	694.60472242057
scalar RSUExampleScenario.node[37].veinsmobility 	startTime 	111.1
scalar RSUExampleScenario.node[37].veinsmobility 	totalTime 	278.2
scalar RSUExampleScenario.node[37].veinsmobility 	stopTime 	389.4
scalar RSUExampleScenario.node[37].veinsmobility 	minSpeed 	0.25305521142296
scalar RSUExampleScenario.node[37].veinsmobility 	maxSpeed 	13.999986801131
scalar RSUExampleScenario.node[37].veinsmobility 	totalDistance 	3413.7694725336
scalar RSUExampleScenario.node[37].veinsmobility 	totalCO2Emission 	703.26631711221
scalar RSUExampleScenario.node[38].veinsmobility 	startTime 	114.1
scalar RSUExampleScenario.node[38].veinsmobility 	totalTime 	278.9
scalar RSUExampleScenario.node[38].veinsmobility 	stopTime 	393.1
scalar RSUExampleScenario.node[38].veinsmobility 	minSpeed 	0.25002038124017
scalar RSUExampleScenario.node[38].veinsmobility 	maxSpeed 	13.999984367585
scalar RSUExampleScenario.node[38].veinsmobility 	totalDistance 	3410.1208562683
scalar RSUExampleScenario.node[38].veinsmobility 	totalCO2Emission 	698.85424523269
scalar RSUExampleScenario.node[39].veinsmobility 	startTime 	117.1
scalar RSUExampleScenario.node[39].veinsmobility 	totalTime 	279.6
scalar RSUExampleScenario.node[39].veinsmobility 	stopTime 	396.8
scalar RSUExampleScenario.node[39].veinsmobility 	minSpeed 	0.24794280649372
scalar RSUExampleScenario.node[39].veinsmobility 	maxSpeed 	13.99985540848
scalar RSUExampleScenario.node[39].veinsmobility 	totalDistance 	3414.3283170624
scalar RSUExampleScenario.node[39].veinsmobility 	totalCO2Emission 	700.29441305751
scalar RSUExampleScenario.node[40].veinsmobility 	startTime 	120.1
scalar RSUExampleScenario.node[40].veinsmobility 	totalTime 	280.2
scalar RSUExampleScenario.node[40].veinsmobility 	stopTime 	400.4
scalar RSUExampleScenario.node[40].veinsmobility 	minSpeed 	0.24782059587445
scalar RSUExampleScenario.node[40].veinsmobility 	maxSpeed 	13.999822117512
scalar RSUExampleScenario.node[40].veinsmobility 	totalDistance 	3409.5839432515
scalar RSUExampleScenario.node[40].veinsmobility 	totalCO2Emission 	701.96492148912
scalar RSUExampleScenario.node[41].veinsmobility 	startTime 	123.1
scalar RSUExampleScenario.node[41].veinsmobility 	totalTime 	280.8
scalar RSUExampleScenario.node[41].veinsmobility 	stopTime 	404
scalar RSUExampleScenario.node[41].veinsmobility 	minSpeed 	0.2553588091291
scalar RSUExampleScenario.node[41].veinsmobility 	maxSpeed 	13.999897791315
scalar RSUExampleScenario.node[41].veinsmobility 	totalDistance 	3409.5628192533
scalar RSUExampleScenario.node[41].veinsmobility 	totalCO2Emission 	708.27111208181
scalar RSUExampleScenario.node[42].veinsmobility 	startTime 	126.1
scalar RSUExampleScenario.node[42].veinsmobility 	totalTime 	281.5
scalar RSUExampleScenario.node[42].veinsmobility 	stopTime 	407.7
scalar RSUExampleScenario.node[42].veinsmobility 	minSpeed 	0.25274875529809
scalar RSUExampleScenario.node[42].veinsmobility 	maxSpeed 	13.999861037901
scalar RSUExampleScenario.node[42].veinsmobility 	totalDistance 	3414.2753358499
scalar RSUExampleScenario.node[42].veinsmobility 	totalCO2Emission 	702.21626810949
scalar RSUExampleScenario.node[43].veinsmobility 	startTime 	129.1
scalar RSUExampleScenario.node[43].veinsmobility 	totalTime 	282.1
scalar RSUExampleScenario.node[43].veinsmobility 	stopTime 	411.3
scalar RSUExampleScenario.node[43].veinsmobility 	minSpeed 	0.25147390632657
scalar RSUExampleScenario.node[43].veinsmobility 	maxSpeed 	13.999812033824
scalar RSUExampleScenario.node[43].veinsmobility 	totalDistance 	3409.4952047879
scalar RSUExampleScenario.node[43].veinsmobility 	totalCO2Emission 	702.98954707114
scalar RSUExampleScenario.node[44].veinsmobility 	startTime 	132.1
scalar RSUExampleScenario.node[44].veinsmobility 	totalTime 	282.8
scalar RSUExampleScenario.node[44].veinsmobility 	stopTime 	415
scalar RSUExampleScenario.node[44].veinsmobility 	minSpeed 	0.25198977545556
scalar RSUExampleScenario.node[44].veinsmobility 	maxSpeed 	13.999991502233
scalar RSUExampleScenario.node[44].veinsmobility 	totalDistance 	3414.1453443916
scalar RSUExampleScenario.node[44].veinsmobility 	totalCO2Emission 	707.22517015827
scalar RSUExampleScenario.node[45].veinsmobility 	startTime 	135.1
scalar RSUExampleScenario.node[45].veinsmobility 	totalTime 	283.5
scalar RSUExampleScenario.node[45].veinsmobility 	stopTime 	418.7
scalar RSUExampleScenario.node[45].veinsmobility 	minSpeed 	0.2515771498559
scalar RSUExampleScenario.node[45].veinsmobility 	maxSpeed 	13.999967530202
scalar RSUExampleScenario.node[45].veinsmobility 	totalDistance 	3409.872131641
scalar RSUExampleScenario.node[45].veinsmobility 	totalCO2Emission 	702.40659508836
scalar RSUExampleScenario.node[46].veinsmobility 	startTime 	138.1
scalar RSUExampleScenario.node[46].veinsmobility 	totalTime 	284.2
scalar RSUExampleScenario.node[46].veinsmobility 	stopTime 	422.4
scalar RSUExampleScenario.node[46].veinsmobility 	minSpeed 	0.25629785357881
scalar RSUExampleScenario.node[46].veinsmobility 	maxSpeed 	13.999884181982
scalar RSUExampleScenario.node[46].veinsmobility 	totalDistance 	3413.6581011472
scalar RSUExampleScenario.node[46].veinsmobility 	totalCO2Emission 	707.17167405243
scalar RSUExampleScenario.node[47].veinsmobility 	startTime 	141.1
scalar RSUExampleScenario.node[47].veinsmobility 	totalTime 	284.8
scalar RSUExampleScenario.node[47].veinsmobility 	stopTime 	426
scalar RSUExampleScenario.node[47].veinsmobility 	minSpeed 	0.25765328845987
scalar RSUExampleScenario.node[47].veinsmobility 	maxSpeed 	13.999961169173
scalar RSUExampleScenario.node[47].veinsmobility 	totalDistance 	3409.5369699975
scalar RSUExampleScenario.node[47].veinsmobility 	totalCO2Emission 	702.17213605243
scalar RSUExampleScenario.node[48].veinsmobility 	startTime 	144.1
scalar RSUExampleScenario.node[48].veinsmobility 	totalTime 	285.5
scalar RSUExampleScenario.node[48].veinsmobility 	stopTime 	429.7
scalar RSUExampleScenario.node[48].veinsmobility 	minSpeed 	0.24743691000552
scalar RSUExampleScenario.node[48].veinsmobility 	maxSpeed 	13.999999018591
scalar RSUExampleScenario.node[48].veinsmobility 	totalDistance 	3414.3280495986
scalar RSUExampleScenario.node[48].veinsmobility 	totalCO2Emission 	709.08472170201
scalar RSUExampleScenario.node[49].veinsmobility 	startTime 	147.1
scalar RSUExampleScenario.node[49].veinsmobility 	totalTime 	286.1
scalar RSUExampleScenario.node[49].veinsmobility 	stopTime 	433.3
scalar RSUExampleScenario.node[49].veinsmobility 	minSpeed 	0.25479559772578
scalar RSUExampleScenario.node[49].veinsmobility 	maxSpeed 	13.999809022008
scalar RSUExampleScenario.node[49].veinsmobility 	totalDistance 	3409.5007374965
scalar RSUExampleScenario.node[49].veinsmobility 	totalCO2Emission 	709.17408254312
scalar RSUExampleScenario.node[50].veinsmobility 	startTime 	150.1
scalar RSUExampleScenario.node[50].veinsmobility 	totalTime 	286.8
scalar RSUExampleScenario.node[50].veinsmobility 	stopTime 	437
scalar RSUExampleScenario.node[50].veinsmobility 	minSpeed 	0.25701102581853
scalar RSUExampleScenario.node[50].veinsmobility 	maxSpeed 	13.999947474485
scalar RSUExampleScenario.node[50].veinsmobility 	totalDistance 	3413.9565430592
scalar RSUExampleScenario.node[50].veinsmobility 	totalCO2Emission 	712.02886353528
scalar RSUExampleScenario.node[51].veinsmobility 	startTime 	153.1
scalar RSUExampleScenario.node[51].veinsmobility 	totalTime 	287.5
scalar RSUExampleScenario.node[51].veinsmobility 	stopTime 	440.7
scalar RSUExampleScenario.node[51].veinsmobility 	minSpeed 	0.2538581640413
scalar RSUExampleScenario.node[51].veinsmobility 	maxSpeed 	13.999920778759
scalar RSUExampleScenario.node[51].veinsmobility 	totalDistance 	3409.5922329823
scalar RSUExampleScenario.node[51].veinsmobility 	totalCO2Emission 	707.43931559887
scalar RSUExampleScenario.node[52].veinsmobility 	startTime 	156.1
scalar RSUExampleScenario.node[52].veinsmobility 	totalTime 	288.2
scalar RSUExampleScenario.node[52].veinsmobility 	stopTime 	444.4
scalar RSUExampleScenario.node[52].veinsmobility 	minSpeed 	0.25467290326674
scalar RSUExampleScenario.node[52].veinsmobility 	maxSpeed 	13.999979398611
scalar RSUExampleScenario.node[52].veinsmobility 	totalDistance 	3414.0930499954
scalar RSUExampleScenario.node[52].veinsmobility 	totalCO2Emission 	710.64869135792
scalar RSUExampleScenario.node[53].veinsmobility 	startTime 	159.1
scalar RSUExampleScenario.node[53].veinsmobility 	totalTime 	288.9
scalar RSUExampleScenario.node[53].veinsmobility 	stopTime 	448.1
scalar RSUExampleScenario.node[53].veinsmobility 	minSpeed 	0.25905137245846
scalar RSUExampleScenario.node[53].veinsmobility 	maxSpeed 	13.99999446444
scalar RSUExampleScenario.node[53].veinsmobility 	totalDistance 	3409.9151058916
scalar RSUExampleScenario.node[53].veinsmobility 	totalCO2Emission 	708.4232188076
scalar RSUExampleScenario.node[54].veinsmobility 	startTime 	162.1
scalar RSUExampleScenario.node[54].veinsmobility 	totalTime 	289.6
scalar RSUExampleScenario.node[54].veinsmobility 	stopTime 	451.8
scalar RSUExampleScenario.node[54].veinsmobility 	minSpeed 	0.25649502136745
scalar RSUExampleScenario.node[54].veinsmobility 	maxSpeed 	13.999914966065
scalar RSUExampleScenario.node[54].veinsmobility 	totalDistance 	3413.8699869245
scalar RSUExampleScenario.node[54].veinsmobility 	totalCO2Emission 	708.85873685651
scalar RSUExampleScenario.node[55].veinsmobility 	startTime 	165.1
scalar RSUExampleScenario.node[55].veinsmobility 	totalTime 	290.3
scalar RSUExampleScenario.node[55].veinsmobility 	stopTime 	455.5
scalar RSUExampleScenario.node[55].veinsmobility 	minSpeed 	0.25135349729401
scalar RSUExampleScenario.node[55].veinsmobility 	maxSpeed 	13.999923610208
scalar RSUExampleScenario.node[55].veinsmobility 	totalDistance 	3410.1697868132
scalar RSUExampleScenario.node[55].veinsmobility 	totalCO2Emission 	715.82663839228
scalar RSUExampleScenario.node[56].veinsmobility 	startTime 	168.1
scalar RSUExampleScenario.node[56].veinsmobility 	totalTime 	291
scalar RSUExampleScenario.node[56].veinsmobility 	stopTime 	459.2
scalar RSUExampleScenario.node[56].veinsmobility 	minSpeed 	0.25344071142469
scalar RSUExampleScenario.node[56].veinsmobility 	maxSpeed 	13.99998552697
scalar RSUExampleScenario.node[56].veinsmobility 	totalDistance 	3413.7854237951
scalar RSUExampleScenario.node[56].veinsmobility 	totalCO2Emission 	713.01424068157
scalar RSUExampleScenario.node[57].veinsmobility 	startTime 	171.1
scalar RSUExampleScenario.node[57].veinsmobility 	totalTime 	291.7
scalar RSUExampleScenario.node[57].veinsmobility 	stopTime 	462.9
scalar RSUExampleScenario.node[57].veinsmobility 	minSpeed 	0.2545647693635
scalar RSUExampleScenario.node[57].veinsmobility 	maxSpeed 	13.999789914072
scalar RSUExampleScenario.node[57].veinsmobility 	totalDistance 	3409.7499544264
scalar RSUExampleScenario.node[57].veinsmobility 	totalCO2Emission 	712.1369906877
scalar RSUExampleScenario.node[58].veinsmobility 	startTime 	174.1
scalar RSUExampleScenario.node[58].veinsmobility 	totalTime 	292.4
scalar RSUExampleScenario.node[58].veinsmobility 	stopTime 	466.6
scalar RSUExampleScenario.node[58].veinsmobility 	minSpeed 	0.25364198897895
scalar RSUExampleScenario.node[58].veinsmobility 	maxSpeed 	13.999964558219
scalar RSUExampleScenario.node[58].veinsmobility 	totalDistance 	3413.9701388287
scalar RSUExampleScenario.node[58].veinsmobility 	totalCO2Emission 	713.25445015294
scalar RSUExampleScenario.node[59].veinsmobility 	startTime 	177.1
scalar RSUExampleScenario.node[59].veinsmobility 	totalTime 	293.1
scalar RSUExampleScenario.node[59].veinsmobility 	stopTime 	470.3
scalar RSUExampleScenario.node[59].veinsmobility 	minSpeed 	0.25543740715249
scalar RSUExampleScenario.node[59].veinsmobility 	maxSpeed 	13.999977271257
scalar RSUExampleScenario.node[59].veinsmobility 	totalDistance 	3409.9696005344
scalar RSUExampleScenario.node[59].veinsmobility 	totalCO2Emission 	716.0794707687
scalar RSUExampleScenario.node[60].veinsmobility 	startTime 	180.1
scalar RSUExampleScenario.node[60].veinsmobility 	totalTime 	293.8
scalar RSUExampleScenario.node[60].veinsmobility 	stopTime 	474
scalar RSUExampleScenario.node[60].veinsmobility 	minSpeed 	0.25340251123765
scalar RSUExampleScenario.node[60].veinsmobility 	maxSpeed 	13.999921515572
scalar RSUExampleScenario.node[60].veinsmobility 	totalDistance 	3409.7327072737
scalar RSUExampleScenario.node[60].veinsmobility 	totalCO2Emission 	715.7974912221
scalar RSUExampleScenario.node[61].veinsmobility 	startTime 	183.1
scalar RSUExampleScenario.node[61].veinsmobility 	totalTime 	294.5
scalar RSUExampleScenario.node[61].veinsmobility 	stopTime 	477.7
scalar RSUExampleScenario.node[61].veinsmobility 	minSpeed 	0.25700625686464
scalar RSUExampleScenario.node[61].veinsmobility 	maxSpeed 	13.999968384879
scalar RSUExampleScenario.node[61].veinsmobility 	totalDistance 	3413.6384265249
scalar RSUExampleScenario.node[61].veinsmobility 	totalCO2Emission 	718.54231843752
scalar RSUExampleScenario.node[62].veinsmobility 	startTime 	186.1
scalar RSUExampleScenario.node[62].veinsmobility 	totalTime 	295.2
scalar RSUExampleScenario.node[62].veinsmobility 	stopTime 	481.4
scalar RSUExampleScenario.node[62].veinsmobility 	minSpeed 	0.25096991864941
scalar RSUExampleScenario.node[62].veinsmobility 	maxSpeed 	13.999871416914
scalar RSUExampleScenario.node[62].veinsmobility 	totalDistance 	3409.8534692467
scalar RSUExampleScenario.node[62].veinsmobility 	totalCO2Emission 	710.70956422998
scalar RSUExampleScenario.node[63].veinsmobility 	startTime 	189.1
scalar RSUExampleScenario.node[63].veinsmobility 	totalTime 	295.9
scalar RSUExampleScenario.node[63].veinsmobility 	stopTime 	485.1
scalar RSUExampleScenario.node[63].veinsmobility 	minSpeed 	0.25569001452462
scalar RSUExampleScenario.node[63].veinsmobility 	maxSpeed 	13.99996591138
scalar RSUExampleScenario.node[63].veinsmobility 	totalDistance 	3413.823063326
scalar RSUExampleScenario.node[63].veinsmobility 	totalCO2Emission 	719.13130478956
scalar RSUExampleScenario.node[64].veinsmobility 	startTime 	192.1
scalar RSUExampleScenario.node[64].veinsmobility 	totalTime 	296.6
scalar RSUExampleScenario.node[64].veinsmobility 	stopTime 	488.8
scalar RSUExampleScenario.node[64].veinsmobility 	minSpeed 	0.25210705192434
scalar RSUExampleScenario.node[64].veinsmobility 	maxSpeed 	13.999779794184
scalar RSUExampleScenario.node[64].veinsmobility 	totalDistance 	3409.7365301683
scalar RSUExampleScenario.node[64].veinsmobility 	totalCO2Emission 	716.51698703226
scalar RSUExampleScenario.node[65].veinsmobility 	startTime 	195.1
scalar RSUExampleScenario.node[65].veinsmobility 	totalTime 	297.3
scalar RSUExampleScenario.node[65].veinsmobility 	stopTime 	492.5
scalar RSUExampleScenario.node[65].veinsmobility 	minSpeed 	0.25296814783197
scalar RSUExampleScenario.node[65].veinsmobility 	maxSpeed 	13.999976872597
scalar RSUExampleScenario.node[65].veinsmobility 	totalDistance 	3413.670553327
scalar RSUExampleScenario.node[65].veinsmobility 	totalCO2Emission 	720.02023764241
scalar RSUExampleScenario.node[66].veinsmobility 	startTime 	198.1
scalar RSUExampleScenario.node[66].veinsmobility 	totalTime 	298
scalar RSUExampleScenario.node[66].veinsmobility 	stopTime 	496.2
scalar RSUExampleScenario.node[66].veinsmobility 	minSpeed 	0.2551088189811
scalar RSUExampleScenario.node[66].veinsmobility 	maxSpeed 	13.999964068513
scalar RSUExampleScenario.node[66].veinsmobility 	totalDistance 	3409.9260825589
scalar RSUExampleScenario.node[66].veinsmobility 	totalCO2Emission 	722.80886461125
scalar RSUExampleScenario.node[67].veinsmobility 	startTime 	201.1
scalar RSUExampleScenario.node[67].veinsmobility 	totalTime 	298.6
scalar RSUExampleScenario.node[67].veinsmobility 	stopTime 	499.8
scalar RSUExampleScenario.node[67].veinsmobility 	minSpeed 	0.25004145648913
scalar RSUExampleScenario.node[67].veinsmobility 	maxSpeed 	13.999953097762
scalar RSUExampleScenario.node[67].veinsmobility 	totalDistance 	3413.8503665052
scalar RSUExampleScenario.node[67].veinsmobility 	totalCO2Emission 	720.99138983021
scalar RSUExampleScenario.node[68].veinsmobility 	startTime 	204.1
scalar RSUExampleScenario.node[68].veinsmobility 	totalTime 	299.3
scalar RSUExampleScenario.node[68].veinsmobility 	stopTime 	503.5
scalar RSUExampleScenario.node[68].veinsmobility 	minSpeed 	0.25996355233528
scalar RSUExampleScenario.node[68].veinsmobility 	maxSpeed 	13.999953270077
scalar RSUExampleScenario.node[68].veinsmobility 	totalDistance 	3409.9272223811
scalar RSUExampleScenario.node[68].veinsmobility 	totalCO2Emission 	719.51661271208
scalar RSUExampleScenario.node[69].veinsmobility 	startTime 	207.1
scalar RSUExampleScenario.node[69].veinsmobility 	totalTime 	300
scalar RSUExampleScenario.node[69].veinsmobility 	stopTime 	507.2
scalar RSUExampleScenario.node[69].veinsmobility 	minSpeed 	0.24775205282075
scalar RSUExampleScenario.node[69].veinsmobility 	maxSpeed 	13.99995993309
scalar RSUExampleScenario.node[69].veinsmobility 	totalDistance 	3413.7229289574
scalar RSUExampleScenario.node[69].veinsmobility 	totalCO2Emission 	720.95311858492
scalar RSUExampleScenario.node[70].veinsmobility 	startTime 	210.1
scalar RSUExampleScenario.node[70].veinsmobility 	totalTime 	300.7
scalar RSUExampleScenario.node[70].veinsmobility 	stopTime 	510.9
scalar RSUExampleScenario.node[70].veinsmobility 	minSpeed 	0.25061947974213
scalar RSUExampleScenario.node[70].veinsmobility 	maxSpeed 	13.999735894348
scalar RSUExampleScenario.node[70].veinsmobility 	totalDistance 	3410.0586761607
scalar RSUExampleScenario.node[70].veinsmobility 	totalCO2Emission 	721.50280839748
scalar RSUExampleScenario.node[71].veinsmobility 	startTime 	213.1
scalar RSUExampleScenario.node[71].veinsmobility 	totalTime 	301.4
scalar RSUExampleScenario.node[71].veinsmobility 	stopTime 	514.6
scalar RSUExampleScenario.node[71].veinsmobility 	minSpeed 	0.24852058039
scalar RSUExampleScenario.node[71].veinsmobility 	maxSpeed 	13.999867739051
scalar RSUExampleScenario.node[71].veinsmobility 	totalDistance 	3414.2035142063
scalar RSUExampleScenario.node[71].veinsmobility 	totalCO2Emission 	721.99685973309
scalar RSUExampleScenario.node[72].veinsmobility 	startTime 	216.1
scalar RSUExampleScenario.node[72].veinsmobility 	totalTime 	302.1
scalar RSUExampleScenario.node[72].veinsmobility 	stopTime 	518.3
scalar RSUExampleScenario.node[72].veinsmobility 	minSpeed 	0.24704248731397
scalar RSUExampleScenario.node[72].veinsmobility 	maxSpeed 	13.999988279904
scalar RSUExampleScenario.node[72].veinsmobility 	totalDistance 	3410.0303321341
scalar RSUExampleScenario.node[72].veinsmobility 	totalCO2Emission 	723.96225822546
scalar RSUExampleScenario.node[73].veinsmobility 	startTime 	219.1
scalar RSUExampleScenario.node[73].veinsmobility 	totalTime 	302.9
scalar RSUExampleScenario.node[73].veinsmobility 	stopTime 	522.1
scalar RSUExampleScenario.node[73].veinsmobility 	minSpeed 	0.25878467549733
scalar RSUExampleScenario.node[73].veinsmobility 	maxSpeed 	13.999873234688
scalar RSUExampleScenario.node[73].veinsmobility 	totalDistance 	3414.0963824085
scalar RSUExampleScenario.node[73].veinsmobility 	totalCO2Emission 	724.37661354589
scalar RSUExampleScenario.node[74].veinsmobility 	startTime 	222.1
scalar RSUExampleScenario.node[74].veinsmobility 	totalTime 	303.7
scalar RSUExampleScenario.node[74].veinsmobility 	stopTime 	525.9
scalar RSUExampleScenario.node[74].veinsmobility 	minSpeed 	0.24857275147922
scalar RSUExampleScenario.node[74].veinsmobility 	maxSpeed 	13.999785923692
scalar RSUExampleScenario.node[74].veinsmobility 	totalDistance 	3409.8584645043
scalar RSUExampleScenario.node[74].veinsmobility 	totalCO2Emission 	722.1938288115
scalar RSUExampleScenario.node[75].veinsmobility 	startTime 	225.1
scalar RSUExampleScenario.node[75].veinsmobility 	totalTime 	304.4
scalar RSUExampleScenario.node[75].veinsmobility 	stopTime 	529.6
scalar RSUExampleScenario.node[75].veinsmobility 	minSpeed 	0.25598153940169
scalar RSUExampleScenario.node[75].veinsmobility 	maxSpeed 	13.999796634503
scalar RSUExampleScenario.node[75].veinsmobility 	totalDistance 	3414.0157439338
scalar RSUExampleScenario.node[75].veinsmobility 	totalCO2Emission 	729.33993925093
scalar RSUExampleScenario.node[76].veinsmobility 	startTime 	228.1
scalar RSUExampleScenario.node[76].veinsmobility 	totalTime 	305.1
scalar RSUExampleScenario.node[76].veinsmobility 	stopTime 	533.3
scalar RSUExampleScenario.node[76].veinsmobility 	minSpeed 	0.2517098983312
scalar RSUExampleScenario.node[76].veinsmobility 	maxSpeed 	13.999738406802
scalar RSUExampleScenario.node[76].veinsmobility 	totalDistance 	3409.5684646802
scalar RSUExampleScenario.node[76].veinsmobility 	totalCO2Emission 	727.95689056803
scalar RSUExampleScenario.node[77].veinsmobility 	startTime 	231.1
scalar RSUExampleScenario.node[77].veinsmobility 	totalTime 	305.8
scalar RSUExampleScenario.node[77].veinsmobility 	stopTime 	537
scalar RSUExampleScenario.node[77].veinsmobility 	minSpeed 	0.25331667773752
scalar RSUExampleScenario.node[77].veinsmobility 	maxSpeed 	13.999990294178
scalar RSUExampleScenario.node[77].veinsmobility 	totalDistance 	3414.2058301162
scalar RSUExampleScenario.node[77].veinsmobility 	totalCO2Emission 	727.00189788297
scalar RSUExampleScenario.node[78].veinsmobility 	startTime 	234.1
scalar RSUExampleScenario.node[78].veinsmobility 	totalTime 	306.5
scalar RSUExampleScenario.node[78].veinsmobility 	stopTime 	540.7
scalar RSUExampleScenario.node[78].veinsmobility 	minSpeed 	0.24816612596554
scalar RSUExampleScenario.node[78].veinsmobility 	maxSpeed 	13.999992658289
scalar RSUExampleScenario.node[78].veinsmobility 	totalDistance 	3410.1264013894
scalar RSUExampleScenario.node[78].veinsmobility 	totalCO2Emission 	727.11002322278
scalar RSUExampleScenario.node[79].veinsmobility 	startTime 	237.1
scalar RSUExampleScenario.node[79].veinsmobility 	totalTime 	307.3
scalar RSUExampleScenario.node[79].veinsmobility 	stopTime 	544.5
scalar RSUExampleScenario.node[79].veinsmobility 	minSpeed 	0.25444467798434
scalar RSUExampleScenario.node[79].veinsmobility 	maxSpeed 	13.999745795974
scalar RSUExampleScenario.node[79].veinsmobility 	totalDistance 	3414.2732229267
scalar RSUExampleScenario.node[79].veinsmobility 	totalCO2Emission 	726.15595449847
scalar RSUExampleScenario.node[80].veinsmobility 	startTime 	240.1
scalar RSUExampleScenario.node[80].veinsmobility 	totalTime 	307.9
scalar RSUExampleScenario.node[80].veinsmobility 	stopTime 	548.1
scalar RSUExampleScenario.node[80].veinsmobility 	minSpeed 	0.25712969506858
scalar RSUExampleScenario.node[80].veinsmobility 	maxSpeed 	13.999907996166
scalar RSUExampleScenario.node[80].veinsmobility 	totalDistance 	3409.7563345463
scalar RSUExampleScenario.node[80].veinsmobility 	totalCO2Emission 	727.65741928277
scalar RSUExampleScenario.node[81].veinsmobility 	startTime 	243.1
scalar RSUExampleScenario.node[81].veinsmobility 	totalTime 	308.6
scalar RSUExampleScenario.node[81].veinsmobility 	stopTime 	551.8
scalar RSUExampleScenario.node[81].veinsmobility 	minSpeed 	0.24724762927252
scalar RSUExampleScenario.node[81].veinsmobility 	maxSpeed 	13.999670544711
scalar RSUExampleScenario.node[81].veinsmobility 	totalDistance 	3413.7633491029
scalar RSUExampleScenario.node[81].veinsmobility 	totalCO2Emission 	731.69152969314
scalar RSUExampleScenario.node[82].veinsmobility 	startTime 	246.1
scalar RSUExampleScenario.node[82].veinsmobility 	totalTime 	309.2
scalar RSUExampleScenario.node[82].veinsmobility 	stopTime 	555.4
scalar RSUExampleScenario.node[82].veinsmobility 	minSpeed 	0.25970496473298
scalar RSUExampleScenario.node[82].veinsmobility 	maxSpeed 	13.999993134162
scalar RSUExampleScenario.node[82].veinsmobility 	totalDistance 	3409.6745433329
scalar RSUExampleScenario.node[82].veinsmobility 	totalCO2Emission 	732.97925295921
scalar RSUExampleScenario.node[83].veinsmobility 	startTime 	249.1
scalar RSUExampleScenario.node[83].veinsmobility 	totalTime 	309.8
scalar RSUExampleScenario.node[83].veinsmobility 	stopTime 	559
scalar RSUExampleScenario.node[83].veinsmobility 	minSpeed 	0.25542161401175
scalar RSUExampleScenario.node[83].veinsmobility 	maxSpeed 	13.999944649362
scalar RSUExampleScenario.node[83].veinsmobility 	totalDistance 	3409.724258147
scalar RSUExampleScenario.node[83].veinsmobility 	totalCO2Emission 	737.85595245495
scalar RSUExampleScenario.node[84].veinsmobility 	startTime 	252.1
scalar RSUExampleScenario.node[84].veinsmobility 	totalTime 	310.4
scalar RSUExampleScenario.node[84].veinsmobility 	stopTime 	562.6
scalar RSUExampleScenario.node[84].veinsmobility 	minSpeed 	0.25701955478545
scalar RSUExampleScenario.node[84].veinsmobility 	maxSpeed 	13.999981233487
scalar RSUExampleScenario.node[84].veinsmobility 	totalDistance 	3413.8821253942
scalar RSUExampleScenario.node[84].veinsmobility 	totalCO2Emission 	732.17233437961
scalar RSUExampleScenario.node[85].veinsmobility 	startTime 	255.1
scalar RSUExampleScenario.node[85].veinsmobility 	totalTime 	311.2
scalar RSUExampleScenario.node[85].veinsmobility 	stopTime 	566.4
scalar RSUExampleScenario.node[85].veinsmobility 	minSpeed 	0.25346296250308
scalar RSUExampleScenario.node[85].veinsmobility 	maxSpeed 	13.999960565418
scalar RSUExampleScenario.node[85].veinsmobility 	totalDistance 	3409.8568380187
scalar RSUExampleScenario.node[85].veinsmobility 	totalCO2Emission 	731.62899050025
scalar RSUExampleScenario.node[86].veinsmobility 	startTime 	258.1
scalar RSUExampleScenario.node[86].veinsmobility 	totalTime 	311.9
scalar RSUExampleScenario.node[86].veinsmobility 	stopTime 	570.1
scalar RSUExampleScenario.node[86].veinsmobility 	minSpeed 	0.25515022276179
scalar RSUExampleScenario.node[86].veinsmobility 	maxSpeed 	13.999900249105
scalar RSUExampleScenario.node[86].veinsmobility 	totalDistance 	3414.0118833238
scalar RSUExampleScenario.node[86].veinsmobility 	totalCO2Emission 	736.60598412729
scalar RSUExampleScenario.node[87].veinsmobility 	startTime 	261.1
scalar RSUExampleScenario.node[87].veinsmobility 	totalTime 	312.5
scalar RSUExampleScenario.node[87].veinsmobility 	stopTime 	573.7
scalar RSUExampleScenario.node[87].veinsmobility 	minSpeed 	0.25654441926163
scalar RSUExampleScenario.node[87].veinsmobility 	maxSpeed 	13.999942067866
scalar RSUExampleScenario.node[87].veinsmobility 	totalDistance 	3409.4405479134
scalar RSUExampleScenario.node[87].veinsmobility 	totalCO2Emission 	734.50854527392
scalar RSUExampleScenario.node[88].veinsmobility 	startTime 	264.1
scalar RSUExampleScenario.node[88].veinsmobility 	totalTime 	313.2
scalar RSUExampleScenario.node[88].veinsmobility 	stopTime 	577.4
scalar RSUExampleScenario.node[88].veinsmobility 	minSpeed 	0.25392551105865
scalar RSUExampleScenario.node[88].veinsmobility 	maxSpeed 	13.999823827955
scalar RSUExampleScenario.node[88].veinsmobility 	totalDistance 	3413.7168133649
scalar RSUExampleScenario.node[88].veinsmobility 	totalCO2Emission 	734.88255752437
scalar RSUExampleScenario.node[89].veinsmobility 	startTime 	267.1
scalar RSUExampleScenario.node[89].veinsmobility 	totalTime 	313.9
scalar RSUExampleScenario.node[89].veinsmobility 	stopTime 	581.1
scalar RSUExampleScenario.node[89].veinsmobility 	minSpeed 	0.25530154244904
scalar RSUExampleScenario.node[89].veinsmobility 	maxSpeed 	13.999995273594
scalar RSUExampleScenario.node[89].veinsmobility 	totalDistance 	3409.6609195148
scalar RSUExampleScenario.node[89].veinsmobility 	totalCO2Emission 	735.43367069313
scalar RSUExampleScenario.node[90].veinsmobility 	startTime 	270.1
scalar RSUExampleScenario.node[90].veinsmobility 	totalTime 	314.7
scalar RSUExampleScenario.node[90].veinsmobility 	stopTime 	584.9
scalar RSUExampleScenario.node[90].veinsmobility 	minSpeed 	0.24734611739288
scalar RSUExampleScenario.node[90].veinsmobility 	maxSpeed 	13.999933883555
scalar RSUExampleScenario.node[90].veinsmobility 	totalDistance 	3414.1579874884
scalar RSUExampleScenario.node[90].veinsmobility 	totalCO2Emission 	731.84609874679
scalar RSUExampleScenario.node[91].veinsmobility 	startTime 	273.1
scalar RSUExampleScenario.node[91].veinsmobility 	totalTime 	315.3
scalar RSUExampleScenario.node[91].veinsmobility 	stopTime 	588.5
scalar RSUExampleScenario.node[91].veinsmobility 	minSpeed 	0.2518498837119
scalar RSUExampleScenario.node[91].veinsmobility 	maxSpeed 	13.99996616445
scalar RSUExampleScenario.node[91].veinsmobility 	totalDistance 	3409.403845776
scalar RSUExampleScenario.node[91].veinsmobility 	totalCO2Emission 	736.65527887133
scalar RSUExampleScenario.node[92].veinsmobility 	startTime 	276.1
scalar RSUExampleScenario.node[92].veinsmobility 	totalTime 	316
scalar RSUExampleScenario.node[92].veinsmobility 	stopTime 	592.2
scalar RSUExampleScenario.node[92].veinsmobility 	minSpeed 	0.25503745675227
scalar RSUExampleScenario.node[92].veinsmobility 	maxSpeed 	13.999952535958
scalar RSUExampleScenario.node[92].veinsmobility 	totalDistance 	3414.1240802246
scalar RSUExampleScenario.node[92].veinsmobility 	totalCO2Emission 	739.34682123741
scalar RSUExampleScenario.node[93].veinsmobility 	startTime 	279.1
scalar RSUExampleScenario.node[93].veinsmobility 	totalTime 	316.7
scalar RSUExampleScenario.node[93].veinsmobility 	stopTime 	595.9
scalar RSUExampleScenario.node[93].veinsmobility 	minSpeed 	0.25616621657112
scalar RSUExampleScenario.node[93].veinsmobility 	maxSpeed 	13.99999604688
scalar RSUExampleScenario.node[93].veinsmobility 	totalDistance 	3409.760890094
scalar RSUExampleScenario.node[93].veinsmobility 	totalCO2Emission 	738.02181868917
scalar RSUExampleScenario.node[94].veinsmobility 	startTime 	282.1
scalar RSUExampleScenario.node[94].veinsmobility 	totalTime 	317.4
scalar RSUExampleScenario.node[94].veinsmobility 	stopTime 	599.6
scalar RSUExampleScenario.node[94].veinsmobility 	minSpeed 	0.25808836046327
scalar RSUExampleScenario.node[94].veinsmobility 	maxSpeed 	13.999933144108
scalar RSUExampleScenario.node[94].veinsmobility 	totalDistance 	3413.6354480056
scalar RSUExampleScenario.node[94].veinsmobility 	totalCO2Emission 	744.56781714429
scalar RSUExampleScenario.node[95].veinsmobility 	startTime 	285.1
scalar RSUExampleScenario.node[95].veinsmobility 	totalTime 	318.1
scalar RSUExampleScenario.node[95].veinsmobility 	stopTime 	603.3
scalar RSUExampleScenario.node[95].veinsmobility 	minSpeed 	0.25279688636819
scalar RSUExampleScenario.node[95].veinsmobility 	maxSpeed 	13.99998519263
scalar RSUExampleScenario.node[95].veinsmobility 	totalDistance 	3409.8346704064
scalar RSUExampleScenario.node[95].veinsmobility 	totalCO2Emission 	739.23603892446
scalar RSUExampleScenario.node[96].veinsmobility 	startTime 	288.1
scalar RSUExampleScenario.node[96].veinsmobility 	totalTime 	318.7
scalar RSUExampleScenario.node[96].veinsmobility 	stopTime 	606.9
scalar RSUExampleScenario.node[96].veinsmobility 	minSpeed 	0.24901991885039
scalar RSUExampleScenario.node[96].veinsmobility 	maxSpeed 	13.999944971141
scalar RSUExampleScenario.node[96].veinsmobility 	totalDistance 	3413.5624002713
scalar RSUExampleScenario.node[96].veinsmobility 	totalCO2Emission 	743.48539330958
scalar RSUExampleScenario.node[97].veinsmobility 	startTime 	291.1
scalar RSUExampleScenario.node[97].veinsmobility 	totalTime 	319.4
scalar RSUExampleScenario.node[97].veinsmobility 	stopTime 	610.6
scalar RSUExampleScenario.node[97].veinsmobility 	minSpeed 	0.25231620336161
scalar RSUExampleScenario.node[97].veinsmobility 	maxSpeed 	13.999945368953
scalar RSUExampleScenario.node[97].veinsmobility 	totalDistance 	3410.0648680982
scalar RSUExampleScenario.node[97].veinsmobility 	totalCO2Emission 	739.64807748647
scalar RSUExampleScenario.node[98].veinsmobility 	startTime 	294.1
scalar RSUExampleScenario.node[98].veinsmobility 	totalTime 	320.2
scalar RSUExampleScenario.node[98].veinsmobility 	stopTime 	614.4
scalar RSUExampleScenario.node[98].veinsmobility 	minSpeed 	0.25086739879125
scalar RSUExampleScenario.node[98].veinsmobility 	maxSpeed 	13.999907382724
scalar RSUExampleScenario.node[98].veinsmobility 	totalDistance 	3414.132316776
scalar RSUExampleScenario.node[98].veinsmobility 	totalCO2Emission 	739.67241480545
scalar RSUExampleScenario.node[99].veinsmobility 	startTime 	297.1
scalar RSUExampleScenario.node[99].veinsmobility 	totalTime 	320.9
scalar RSUExampleScenario.node[99].veinsmobility 	stopTime 	618.1
scalar RSUExampleScenario.node[99].veinsmobility 	minSpeed 	0.25500684423721
scalar RSUExampleScenario.node[99].veinsmobility 	maxSpeed 	13.999991215596
scalar RSUExampleScenario.node[99].veinsmobility 	totalDistance 	3409.6735560105
scalar RSUExampleScenario.node[99].veinsmobility 	totalCO2Emission 	743.25420391126
scalar RSUExampleScenario.node[100].veinsmobility 	startTime 	300.1
scalar RSUExampleScenario.node[100].veinsmobility 	totalTime 	321.6
scalar RSUExampleScenario.node[100].veinsmobility 	stopTime 	621.8
scalar RSUExampleScenario.node[100].veinsmobility 	minSpeed 	0.25584400796448
scalar RSUExampleScenario.node[100].veinsmobility 	maxSpeed 	13.999997354518
scalar RSUExampleScenario.node[100].veinsmobility 	totalDistance 	3413.8961520644
scalar RSUExampleScenario.node[100].veinsmobility 	totalCO2Emission 	739.71728694198
scalar RSUExampleScenario.node[101].veinsmobility 	startTime 	303.1
scalar RSUExampleScenario.node[101].veinsmobility 	totalTime 	322.3
scalar RSUExampleScenario.node[101].veinsmobility 	stopTime 	625.5
scalar RSUExampleScenario.node[101].veinsmobility 	minSpeed 	0.2584982030096
scalar RSUExampleScenario.node[101].veinsmobility 	maxSpeed 	13.999993922007
scalar RSUExampleScenario.node[101].veinsmobility 	totalDistance 	3410.1064945065
scalar RSUExampleScenario.node[101].veinsmobility 	totalCO2Emission 	751.45775728771
scalar RSUExampleScenario.node[102].veinsmobility 	startTime 	306.1
scalar RSUExampleScenario.node[102].veinsmobility 	totalTime 	323
scalar RSUExampleScenario.node[102].veinsmobility 	stopTime 	629.2
scalar RSUExampleScenario.node[102].veinsmobility 	minSpeed 	0.25246043812204
scalar RSUExampleScenario.node[102].veinsmobility 	maxSpeed 	13.999903973157
scalar RSUExampleScenario.node[102].veinsmobility 	totalDistance 	3414.1664217694
scalar RSUExampleScenario.node[102].veinsmobility 	totalCO2Emission 	746.37960509661
scalar RSUExampleScenario.node[103].veinsmobility 	startTime 	309.1
scalar RSUExampleScenario.node[103].veinsmobility 	totalTime 	323.7
scalar RSUExampleScenario.node[103].veinsmobility 	stopTime 	632.9
scalar RSUExampleScenario.node[103].veinsmobility 	minSpeed 	0.2545421307066
scalar RSUExampleScenario.node[103].veinsmobility 	maxSpeed 	13.99996102537
scalar RSUExampleScenario.node[103].veinsmobility 	totalDistance 	3409.6495354552
scalar RSUExampleScenario.node[103].veinsmobility 	totalCO2Emission 	745.35586591382
scalar RSUExampleScenario.node[104].veinsmobility 	startTime 	312.1
scalar RSUExampleScenario.node[104].veinsmobility 	totalTime 	324.4
scalar RSUExampleScenario.node[104].veinsmobility 	stopTime 	636.6
scalar RSUExampleScenario.node[104].veinsmobility 	minSpeed 	0.25040176881268
scalar RSUExampleScenario.node[104].veinsmobility 	maxSpeed 	13.999921279876
scalar RSUExampleScenario.node[104].veinsmobility 	totalDistance 	3413.70191854
scalar RSUExampleScenario.node[104].veinsmobility 	totalCO2Emission 	747.92656328621
scalar RSUExampleScenario.node[105].veinsmobility 	startTime 	315.1
scalar RSUExampleScenario.node[105].veinsmobility 	totalTime 	325.1
scalar RSUExampleScenario.node[105].veinsmobility 	stopTime 	640.3
scalar RSUExampleScenario.node[105].veinsmobility 	minSpeed 	0.24973152427701
scalar RSUExampleScenario.node[105].veinsmobility 	maxSpeed 	13.999881774466
scalar RSUExampleScenario.node[105].veinsmobility 	totalDistance 	3409.8870806318
scalar RSUExampleScenario.node[105].veinsmobility 	totalCO2Emission 	746.03111037587
scalar RSUExampleScenario.node[106].veinsmobility 	startTime 	318.1
scalar RSUExampleScenario.node[106].veinsmobility 	totalTime 	325.7
scalar RSUExampleScenario.node[106].veinsmobility 	stopTime 	643.9
scalar RSUExampleScenario.node[106].veinsmobility 	minSpeed 	0.24978858280112
scalar RSUExampleScenario.node[106].veinsmobility 	maxSpeed 	13.999939968418
scalar RSUExampleScenario.node[106].veinsmobility 	totalDistance 	3413.9406495653
scalar RSUExampleScenario.node[106].veinsmobility 	totalCO2Emission 	750.07992694588
scalar RSUExampleScenario.node[107].veinsmobility 	startTime 	321.1
scalar RSUExampleScenario.node[107].veinsmobility 	totalTime 	326.3
scalar RSUExampleScenario.node[107].veinsmobility 	stopTime 	647.5
scalar RSUExampleScenario.node[107].veinsmobility 	minSpeed 	0.25182187852031
scalar RSUExampleScenario.node[107].veinsmobility 	maxSpeed 	13.999872088348
scalar RSUExampleScenario.node[107].veinsmobility 	totalDistance 	3409.5012237027
scalar RSUExampleScenario.node[107].veinsmobility 	totalCO2Emission 	747.0422073259
scalar RSUExampleScenario.node[108].veinsmobility 	startTime 	324.1
scalar RSUExampleScenario.node[108].veinsmobility 	totalTime 	327
scalar RSUExampleScenario.node[108].veinsmobility 	stopTime 	651.2
scalar RSUExampleScenario.node[108].veinsmobility 	minSpeed 	0.25335471536429
scalar RSUExampleScenario.node[108].veinsmobility 	maxSpeed 	13.999990173257
scalar RSUExampleScenario.node[108].veinsmobility 	totalDistance 	3414.2947337895
scalar RSUExampleScenario.node[108].veinsmobility 	totalCO2Emission 	751.15076729876
scalar RSUExampleScenario.node[109].veinsmobility 	startTime 	327.1
scalar RSUExampleScenario.node[109].veinsmobility 	totalTime 	327.6
scalar RSUExampleScenario.node[109].veinsmobility 	stopTime 	654.8
scalar RSUExampleScenario.node[109].veinsmobility 	minSpeed 	0.25826953137433
scalar RSUExampleScenario.node[109].veinsmobility 	maxSpeed 	13.999964419501
scalar RSUExampleScenario.node[109].veinsmobility 	totalDistance 	3409.7301328727
scalar RSUExampleScenario.node[109].veinsmobility 	totalCO2Emission 	749.48139496865
scalar RSUExampleScenario.node[110].veinsmobility 	startTime 	330.1
scalar RSUExampleScenario.node[110].veinsmobility 	totalTime 	328.3
scalar RSUExampleScenario.node[110].veinsmobility 	stopTime 	658.5
scalar RSUExampleScenario.node[110].veinsmobility 	minSpeed 	0.25525994286477
scalar RSUExampleScenario.node[110].veinsmobility 	maxSpeed 	13.999991424384
scalar RSUExampleScenario.node[110].veinsmobility 	totalDistance 	3413.7326234893
scalar RSUExampleScenario.node[110].veinsmobility 	totalCO2Emission 	747.72604165916
scalar RSUExampleScenario.node[111].veinsmobility 	startTime 	333.1
scalar RSUExampleScenario.node[111].veinsmobility 	totalTime 	329
scalar RSUExampleScenario.node[111].veinsmobility 	stopTime 	662.2
scalar RSUExampleScenario.node[111].veinsmobility 	minSpeed 	0.24747418184625
scalar RSUExampleScenario.node[111].veinsmobility 	maxSpeed 	13.999912447345
scalar RSUExampleScenario.node[111].veinsmobility 	totalDistance 	3409.996202782
scalar RSUExampleScenario.node[111].veinsmobility 	totalCO2Emission 	752.02038220781
scalar RSUExampleScenario.node[112].veinsmobility 	startTime 	336.1
scalar RSUExampleScenario.node[112].veinsmobility 	totalTime 	329.8
scalar RSUExampleScenario.node[112].veinsmobility 	stopTime 	666
scalar RSUExampleScenario.node[112].veinsmobility 	minSpeed 	0.25340188356745
scalar RSUExampleScenario.node[112].veinsmobility 	maxSpeed 	13.999931019871
scalar RSUExampleScenario.node[112].veinsmobility 	totalDistance 	3414.3794237969
scalar RSUExampleScenario.node[112].veinsmobility 	totalCO2Emission 	754.56535525765
scalar RSUExampleScenario.node[113].veinsmobility 	startTime 	339.1
scalar RSUExampleScenario.node[113].veinsmobility 	totalTime 	330.5
scalar RSUExampleScenario.node[113].veinsmobility 	stopTime 	669.7
scalar RSUExampleScenario.node[113].veinsmobility 	minSpeed 	0.25693583178101
scalar RSUExampleScenario.node[113].veinsmobility 	maxSpeed 	13.999945873611
scalar RSUExampleScenario.node[113].veinsmobility 	totalDistance 	3409.5906092699
scalar RSUExampleScenario.node[113].veinsmobility 	totalCO2Emission 	750.58401745223
scalar RSUExampleScenario.node[114].veinsmobility 	startTime 	342.1
scalar RSUExampleScenario.node[114].veinsmobility 	totalTime 	331.2
scalar RSUExampleScenario.node[114].veinsmobility 	stopTime 	673.4
scalar RSUExampleScenario.node[114].veinsmobility 	minSpeed 	0.2553431336612
scalar RSUExampleScenario.node[114].veinsmobility 	maxSpeed 	13.99996989513
scalar RSUExampleScenario.node[114].veinsmobility 	totalDistance 	3413.9480723587
scalar RSUExampleScenario.node[114].veinsmobility 	totalCO2Emission 	753.32303702283
scalar RSUExampleScenario.node[115].veinsmobility 	startTime 	345.1
scalar RSUExampleScenario.node[115].veinsmobility 	totalTime 	331.9
scalar RSUExampleScenario.node[115].veinsmobility 	stopTime 	677.1
scalar RSUExampleScenario.node[115].veinsmobility 	minSpeed 	0.25799897811469
scalar RSUExampleScenario.node[115].veinsmobility 	maxSpeed 	13.999940686193
scalar RSUExampleScenario.node[115].veinsmobility 	totalDistance 	3410.1339444503
scalar RSUExampleScenario.node[115].veinsmobility 	totalCO2Emission 	756.30756398787
scalar RSUExampleScenario.node[116].veinsmobility 	startTime 	348.1
scalar RSUExampleScenario.node[116].veinsmobility 	totalTime 	332.6
scalar RSUExampleScenario.node[116].veinsmobility 	stopTime 	680.8
scalar RSUExampleScenario.node[116].veinsmobility 	minSpeed 	0.25751996561629
scalar RSUExampleScenario.node[116].veinsmobility 	maxSpeed 	13.999984601587
scalar RSUExampleScenario.node[116].veinsmobility 	totalDistance 	3414.0618346458
scalar RSUExampleScenario.node[116].veinsmobility 	totalCO2Emission 	755.08592574674
scalar RSUExampleScenario.node[117].veinsmobility 	startTime 	351.1
scalar RSUExampleScenario.node[117].veinsmobility 	totalTime 	333.3
scalar RSUExampleScenario.node[117].veinsmobility 	stopTime 	684.5
scalar RSUExampleScenario.node[117].veinsmobility 	minSpeed 	0.25574601145065
scalar RSUExampleScenario.node[117].veinsmobility 	maxSpeed 	13.999979218668
scalar RSUExampleScenario.node[117].veinsmobility 	totalDistance 	3409.9402862737
scalar RSUExampleScenario.node[117].veinsmobility 	totalCO2Emission 	756.78723138857
scalar RSUExampleScenario.node[118].veinsmobility 	startTime 	354.1
scalar RSUExampleScenario.node[118].veinsmobility 	totalTime 	334
scalar RSUExampleScenario.node[118].veinsmobility 	stopTime 	688.2
scalar RSUExampleScenario.node[118].veinsmobility 	minSpeed 	0.25391061117756
scalar RSUExampleScenario.node[118].veinsmobility 	maxSpeed 	13.99998644188
scalar RSUExampleScenario.node[118].veinsmobility 	totalDistance 	3414.4365472108
scalar RSUExampleScenario.node[118].veinsmobility 	totalCO2Emission 	756.30950367701
scalar RSUExampleScenario.node[119].veinsmobility 	startTime 	357.1
scalar RSUExampleScenario.node[119].veinsmobility 	totalTime 	334.7
scalar RSUExampleScenario.node[119].veinsmobility 	stopTime 	691.9
scalar RSUExampleScenario.node[119].veinsmobility 	minSpeed 	0.25257112598326
scalar RSUExampleScenario.node[119].veinsmobility 	maxSpeed 	13.999932965557
scalar RSUExampleScenario.node[119].veinsmobility 	totalDistance 	3409.7827306751
scalar RSUExampleScenario.node[119].veinsmobility 	totalCO2Emission 	755.87375467406
scalar RSUExampleScenario.node[120].veinsmobility 	startTime 	360.1
scalar RSUExampleScenario.node[120].veinsmobility 	totalTime 	335.3
scalar RSUExampleScenario.node[120].veinsmobility 	stopTime 	695.5
scalar RSUExampleScenario.node[120].veinsmobility 	minSpeed 	0.2564362236571
scalar RSUExampleScenario.node[120].veinsmobility 	maxSpeed 	13.999923307316
scalar RSUExampleScenario.node[120].veinsmobility 	totalDistance 	3413.7695508511
scalar RSUExampleScenario.node[120].veinsmobility 	totalCO2Emission 	760.27223339948
scalar RSUExampleScenario.node[121].veinsmobility 	startTime 	363.1
scalar RSUExampleScenario.node[121].veinsmobility 	totalTime 	336
scalar RSUExampleScenario.node[121].veinsmobility 	stopTime 	699.2
scalar RSUExampleScenario.node[121].veinsmobility 	minSpeed 	0.25037933260924
scalar RSUExampleScenario.node[121].veinsmobility 	maxSpeed 	13.999899141751
scalar RSUExampleScenario.node[121].veinsmobility 	totalDistance 	3409.7471426285
scalar RSUExampleScenario.node[121].veinsmobility 	totalCO2Emission 	756.65839920259
scalar RSUExampleScenario.node[122].veinsmobility 	startTime 	366.1
scalar RSUExampleScenario.node[122].veinsmobility 	totalTime 	336.7
scalar RSUExampleScenario.node[122].veinsmobility 	stopTime 	702.9
scalar RSUExampleScenario.node[122].veinsmobility 	minSpeed 	0.25760082012392
scalar RSUExampleScenario.node[122].veinsmobility 	maxSpeed 	13.999976216205
scalar RSUExampleScenario.node[122].veinsmobility 	totalDistance 	3414.1793109673
scalar RSUExampleScenario.node[122].veinsmobility 	totalCO2Emission 	756.76991994906
scalar RSUExampleScenario.node[123].veinsmobility 	startTime 	369.1
scalar RSUExampleScenario.node[123].veinsmobility 	totalTime 	337.4
scalar RSUExampleScenario.node[123].veinsmobility 	stopTime 	706.6
scalar RSUExampleScenario.node[123].veinsmobility 	minSpeed 	0.25061160730291
scalar RSUExampleScenario.node[123].veinsmobility 	maxSpeed 	13.999765634488
scalar RSUExampleScenario.node[123].veinsmobility 	totalDistance 	3409.7071082649
scalar RSUExampleScenario.node[123].veinsmobility 	totalCO2Emission 	758.22153067474
scalar RSUExampleScenario.node[124].veinsmobility 	startTime 	372.1
scalar RSUExampleScenario.node[124].veinsmobility 	totalTime 	338.1
scalar RSUExampleScenario.node[124].veinsmobility 	stopTime 	710.3
scalar RSUExampleScenario.node[124].veinsmobility 	minSpeed 	0.25522655298375
scalar RSUExampleScenario.node[124].veinsmobility 	maxSpeed 	13.999991814992
scalar RSUExampleScenario.node[124].veinsmobility 	totalDistance 	3413.9812606667
scalar RSUExampleScenario.node[124].veinsmobility 	totalCO2Emission 	762.46397385017
scalar RSUExampleScenario.node[125].veinsmobility 	startTime 	375.1
scalar RSUExampleScenario.node[125].veinsmobility 	totalTime 	338.8
scalar RSUExampleScenario.node[125].veinsmobility 	stopTime 	714
scalar RSUExampleScenario.node[125].veinsmobility 	minSpeed 	0.24804265498742
scalar RSUExampleScenario.node[125].veinsmobility 	maxSpeed 	13.999991166289
scalar RSUExampleScenario.node[125].veinsmobility 	totalDistance 	3409.8670664447
scalar RSUExampleScenario.node[125].veinsmobility 	totalCO2Emission 	763.97032606906
scalar RSUExampleScenario.node[126].veinsmobility 	startTime 	378.1
scalar RSUExampleScenario.node[126].veinsmobility 	totalTime 	339.5
scalar RSUExampleScenario.node[126].veinsmobility 	stopTime 	717.7
scalar RSUExampleScenario.node[126].veinsmobility 	minSpeed 	0.25484566266276
scalar RSUExampleScenario.node[126].veinsmobility 	maxSpeed 	13.999998132163
scalar RSUExampleScenario.node[126].veinsmobility 	totalDistance 	3414.3289879124
scalar RSUExampleScenario.node[126].veinsmobility 	totalCO2Emission 	764.37387766071
scalar RSUExampleScenario.node[127].veinsmobility 	startTime 	381.1
scalar RSUExampleScenario.node[127].veinsmobility 	totalTime 	340.1
scalar RSUExampleScenario.node[127].veinsmobility 	stopTime 	721.3
scalar RSUExampleScenario.node[127].veinsmobility 	minSpeed 	0.24871191694867
scalar RSUExampleScenario.node[127].veinsmobility 	maxSpeed 	13.999964986481
scalar RSUExampleScenario.node[127].veinsmobility 	totalDistance 	3409.6224832069
scalar RSUExampleScenario.node[127].veinsmobility 	totalCO2Emission 	761.75016425822
scalar RSUExampleScenario.node[128].veinsmobility 	startTime 	384.1
scalar RSUExampleScenario.node[128].veinsmobility 	totalTime 	340.8
scalar RSUExampleScenario.node[128].veinsmobility 	stopTime 	725
scalar RSUExampleScenario.node[128].veinsmobility 	minSpeed 	0.25012635950302
scalar RSUExampleScenario.node[128].veinsmobility 	maxSpeed 	13.999979888529
scalar RSUExampleScenario.node[128].veinsmobility 	totalDistance 	3413.7287019694
scalar RSUExampleScenario.node[128].veinsmobility 	totalCO2Emission 	764.07479537836
scalar RSUExampleScenario.node[129].veinsmobility 	startTime 	387.1
scalar RSUExampleScenario.node[129].veinsmobility 	totalTime 	341.5
scalar RSUExampleScenario.node[129].veinsmobility 	stopTime 	728.7
scalar RSUExampleScenario.node[129].veinsmobility 	minSpeed 	0.25044865982467
scalar RSUExampleScenario.node[129].veinsmobility 	maxSpeed 	13.999880575975
scalar RSUExampleScenario.node[129].veinsmobility 	totalDistance 	3410.2336393231
scalar RSUExampleScenario.node[129].veinsmobility 	totalCO2Emission 	768.31289520447
scalar RSUExampleScenario.node[130].veinsmobility 	startTime 	390.1
scalar RSUExampleScenario.node[130].veinsmobility 	totalTime 	342.2
scalar RSUExampleScenario.node[130].veinsmobility 	stopTime 	732.4
scalar RSUExampleScenario.node[130].veinsmobility 	minSpeed 	0.249768242141
scalar RSUExampleScenario.node[130].veinsmobility 	maxSpeed 	13.999987046302
scalar RSUExampleScenario.node[130].veinsmobility 	totalDistance 	3409.8845595193
scalar RSUExampleScenario.node[130].veinsmobility 	totalCO2Emission 	764.31590803803
scalar RSUExampleScenario.node[131].veinsmobility 	startTime 	393.1
scalar RSUExampleScenario.node[131].veinsmobility 	totalTime 	342.9
scalar RSUExampleScenario.node[131].veinsmobility 	stopTime 	736.1
scalar RSUExampleScenario.node[131].veinsmobility 	minSpeed 	0.25796028825827
scalar RSUExampleScenario.node[131].veinsmobility 	maxSpeed 	13.999909157942
scalar RSUExampleScenario.node[131].veinsmobility 	totalDistance 	3414.2815663617
scalar RSUExampleScenario.node[131].veinsmobility 	totalCO2Emission 	763.45203360382
scalar RSUExampleScenario.node[132].veinsmobility 	startTime 	396.1
scalar RSUExampleScenario.node[132].veinsmobility 	totalTime 	343.6
scalar RSUExampleScenario.node[132].veinsmobility 	stopTime 	739.8
scalar RSUExampleScenario.node[132].veinsmobility 	minSpeed 	0.25035969471419
scalar RSUExampleScenario.node[132].veinsmobility 	maxSpeed 	13.999879727412
scalar RSUExampleScenario.node[132].veinsmobility 	totalDistance 	3410.0970445287
scalar RSUExampleScenario.node[132].veinsmobility 	totalCO2Emission 	768.36830082684
scalar RSUExampleScenario.node[133].veinsmobility 	startTime 	399.1
scalar RSUExampleScenario.node[133].veinsmobility 	totalTime 	344.3
scalar RSUExampleScenario.node[133].veinsmobility 	stopTime 	743.5
scalar RSUExampleScenario.node[133].veinsmobility 	minSpeed 	0.24883649795363
scalar RSUExampleScenario.node[133].veinsmobility 	maxSpeed 	13.999841489294
scalar RSUExampleScenario.node[133].veinsmobility 	totalDistance 	3409.5910444015
scalar RSUExampleScenario.node[133].veinsmobility 	totalCO2Emission 	764.86594899571
scalar RSUExampleScenario.node[134].veinsmobility 	startTime 	402.1
scalar RSUExampleScenario.node[134].veinsmobility 	totalTime 	345.1
scalar RSUExampleScenario.node[134].veinsmobility 	stopTime 	747.3
scalar RSUExampleScenario.node[134].veinsmobility 	minSpeed 	0.25445892693731
scalar RSUExampleScenario.node[134].veinsmobility 	maxSpeed 	13.999998093511
scalar RSUExampleScenario.node[134].veinsmobility 	totalDistance 	3414.1285989633
scalar RSUExampleScenario.node[134].veinsmobility 	totalCO2Emission 	766.55613483794
scalar RSUExampleScenario.node[135].veinsmobility 	startTime 	405.1
scalar RSUExampleScenario.node[135].veinsmobility 	totalTime 	345.8
scalar RSUExampleScenario.node[135].veinsmobility 	stopTime 	751
scalar RSUExampleScenario.node[135].veinsmobility 	minSpeed 	0.24819676947198
scalar RSUExampleScenario.node[135].veinsmobility 	maxSpeed 	13.999984863163
scalar RSUExampleScenario.node[135].veinsmobility 	totalDistance 	3410.2719988531
scalar RSUExampleScenario.node[135].veinsmobility 	totalCO2Emission 	772.54420071389
scalar RSUExampleScenario.node[136].veinsmobility 	startTime 	408.1
scalar RSUExampleScenario.node[136].veinsmobility 	totalTime 	346.4
scalar RSUExampleScenario.node[136].veinsmobility 	stopTime 	754.6
scalar RSUExampleScenario.node[136].veinsmobility 	minSpeed 	0.2507220477385
scalar RSUExampleScenario.node[136].veinsmobility 	maxSpeed 	13.999942192268
scalar RSUExampleScenario.node[136].veinsmobility 	totalDistance 	3413.7914254583
scalar RSUExampleScenario.node[136].veinsmobility 	totalCO2Emission 	766.54752823336
scalar RSUExampleScenario.node[137].veinsmobility 	startTime 	411.1
scalar RSUExampleScenario.node[137].veinsmobility 	totalTime 	347
scalar RSUExampleScenario.node[137].veinsmobility 	stopTime 	758.2
scalar RSUExampleScenario.node[137].veinsmobility 	minSpeed 	0.25038405750203
scalar RSUExampleScenario.node[137].veinsmobility 	maxSpeed 	13.999990808945
scalar RSUExampleScenario.node[137].veinsmobility 	totalDistance 	3409.6681615071
scalar RSUExampleScenario.node[137].veinsmobility 	totalCO2Emission 	768.2077205776
scalar RSUExampleScenario.node[138].veinsmobility 	startTime 	414.1
scalar RSUExampleScenario.node[138].veinsmobility 	totalTime 	347.7
scalar RSUExampleScenario.node[138].veinsmobility 	stopTime 	761.9
scalar RSUExampleScenario.node[138].veinsmobility 	minSpeed 	0.24860982335755
scalar RSUExampleScenario.node[138].veinsmobility 	maxSpeed 	13.999921166189
scalar RSUExampleScenario.node[138].veinsmobility 	totalDistance 	3413.7938687073
scalar RSUExampleScenario.node[138].veinsmobility 	totalCO2Emission 	770.01331393491
scalar RSUExampleScenario.node[139].veinsmobility 	startTime 	417.1
scalar RSUExampleScenario.node[139].veinsmobility 	totalTime 	348.4
scalar RSUExampleScenario.node[139].veinsmobility 	stopTime 	765.6
scalar RSUExampleScenario.node[139].veinsmobility 	minSpeed 	0.25326179895015
scalar RSUExampleScenario.node[139].veinsmobility 	maxSpeed 	13.999929765596
scalar RSUExampleScenario.node[139].veinsmobility 	totalDistance 	3410.017023218
scalar RSUExampleScenario.node[139].veinsmobility 	totalCO2Emission 	771.50409326561
scalar RSUExampleScenario.node[140].veinsmobility 	startTime 	420.1
scalar RSUExampleScenario.node[140].veinsmobility 	totalTime 	349.1
scalar RSUExampleScenario.node[140].veinsmobility 	stopTime 	769.3
scalar RSUExampleScenario.node[140].veinsmobility 	minSpeed 	0.25124607785745
scalar RSUExampleScenario.node[140].veinsmobility 	maxSpeed 	13.999986490097
scalar RSUExampleScenario.node[140].veinsmobility 	totalDistance 	3414.3832787477
scalar RSUExampleScenario.node[140].veinsmobility 	totalCO2Emission 	772.25577468242
scalar RSUExampleScenario.node[141].veinsmobility 	startTime 	423.1
scalar RSUExampleScenario.node[141].veinsmobility 	totalTime 	349.8
scalar RSUExampleScenario.node[141].veinsmobility 	stopTime 	773
scalar RSUExampleScenario.node[141].veinsmobility 	minSpeed 	0.25381309844297
scalar RSUExampleScenario.node[141].veinsmobility 	maxSpeed 	13.999972288965
scalar RSUExampleScenario.node[141].veinsmobility 	totalDistance 	3410.2420801365
scalar RSUExampleScenario.node[141].veinsmobility 	totalCO2Emission 	773.08345787325
scalar RSUExampleScenario.node[142].veinsmobility 	startTime 	426.1
scalar RSUExampleScenario.node[142].veinsmobility 	totalTime 	350.5
scalar RSUExampleScenario.node[142].veinsmobility 	stopTime 	776.7
scalar RSUExampleScenario.node[142].veinsmobility 	minSpeed 	0.25701960889553
scalar RSUExampleScenario.node[142].veinsmobility 	maxSpeed 	13.99992813288
scalar RSUExampleScenario.node[142].veinsmobility 	totalDistance 	3414.4092195814
scalar RSUExampleScenario.node[142].veinsmobility 	totalCO2Emission 	770.50678701044
scalar RSUExampleScenario.node[143].veinsmobility 	startTime 	429.1
scalar RSUExampleScenario.node[143].veinsmobility 	totalTime 	351.2
scalar RSUExampleScenario.node[143].veinsmobility 	stopTime 	780.4
scalar RSUExampleScenario.node[143].veinsmobility 	minSpeed 	0.2486275724275
scalar RSUExampleScenario.node[143].veinsmobility 	maxSpeed 	13.999945981698
scalar RSUExampleScenario.node[143].veinsmobility 	totalDistance 	3409.7068898945
scalar RSUExampleScenario.node[143].veinsmobility 	totalCO2Emission 	776.2208994957
scalar RSUExampleScenario.node[144].veinsmobility 	startTime 	432.1
scalar RSUExampleScenario.node[144].veinsmobility 	totalTime 	351.9
scalar RSUExampleScenario.node[144].veinsmobility 	stopTime 	784.1
scalar RSUExampleScenario.node[144].veinsmobility 	minSpeed 	0.25528517904133
scalar RSUExampleScenario.node[144].veinsmobility 	maxSpeed 	13.999952324717
scalar RSUExampleScenario.node[144].veinsmobility 	totalDistance 	3414.4361563503
scalar RSUExampleScenario.node[144].veinsmobility 	totalCO2Emission 	772.00349309923
scalar RSUExampleScenario.node[145].veinsmobility 	startTime 	435.1
scalar RSUExampleScenario.node[145].veinsmobility 	totalTime 	352.6
scalar RSUExampleScenario.node[145].veinsmobility 	stopTime 	787.8
scalar RSUExampleScenario.node[145].veinsmobility 	minSpeed 	0.25627212549001
scalar RSUExampleScenario.node[145].veinsmobility 	maxSpeed 	13.999926317891
scalar RSUExampleScenario.node[145].veinsmobility 	totalDistance 	3410.0079555544
scalar RSUExampleScenario.node[145].veinsmobility 	totalCO2Emission 	776.43611896119
scalar RSUExampleScenario.node[146].veinsmobility 	startTime 	438.1
scalar RSUExampleScenario.node[146].veinsmobility 	totalTime 	353.3
scalar RSUExampleScenario.node[146].veinsmobility 	stopTime 	791.5
scalar RSUExampleScenario.node[146].veinsmobility 	minSpeed 	0.25249872971536
scalar RSUExampleScenario.node[146].veinsmobility 	maxSpeed 	13.999924141108
scalar RSUExampleScenario.node[146].veinsmobility 	totalDistance 	3409.6461243487
scalar RSUExampleScenario.node[146].veinsmobility 	totalCO2Emission 	774.36770972906
scalar RSUExampleScenario.node[147].veinsmobility 	startTime 	441.1
scalar RSUExampleScenario.node[147].veinsmobility 	totalTime 	353.9
scalar RSUExampleScenario.node[147].veinsmobility 	stopTime 	795.1
scalar RSUExampleScenario.node[147].veinsmobility 	minSpeed 	0.2596167337331
scalar RSUExampleScenario.node[147].veinsmobility 	maxSpeed 	13.9999861787
scalar RSUExampleScenario.node[147].veinsmobility 	totalDistance 	3413.9490959524
scalar RSUExampleScenario.node[147].veinsmobility 	totalCO2Emission 	774.66378591792
scalar RSUExampleScenario.node[148].veinsmobility 	startTime 	444.1
scalar RSUExampleScenario.node[148].veinsmobility 	totalTime 	354.6
scalar RSUExampleScenario.node[148].veinsmobility 	stopTime 	798.8
scalar RSUExampleScenario.node[148].veinsmobility 	minSpeed 	0.25331939927116
scalar RSUExampleScenario.node[148].veinsmobility 	maxSpeed 	13.999935562096
scalar RSUExampleScenario.node[148].veinsmobility 	totalDistance 	3410.2452894461
scalar RSUExampleScenario.node[148].veinsmobility 	totalCO2Emission 	778.30163576435
scalar RSUExampleScenario.node[149].veinsmobility 	startTime 	447.1
scalar RSUExampleScenario.node[149].veinsmobility 	totalTime 	355.3
scalar RSUExampleScenario.node[149].veinsmobility 	stopTime 	802.5
scalar RSUExampleScenario.node[149].veinsmobility 	minSpeed 	0.24933284217492
scalar RSUExampleScenario.node[149].veinsmobility 	maxSpeed 	13.999955213403
scalar RSUExampleScenario.node[149].veinsmobility 	totalDistance 	3414.047743528
scalar RSUExampleScenario.node[149].veinsmobility 	totalCO2Emission 	776.48234668929
scalar RSUExampleScenario.node[150].veinsmobility 	startTime 	450.1
scalar RSUExampleScenario.node[150].veinsmobility 	totalTime 	355.9
scalar RSUExampleScenario.node[150].veinsmobility 	stopTime 	806.1
scalar RSUExampleScenario.node[150].veinsmobility 	minSpeed 	0.25349766230979
scalar RSUExampleScenario.node[150].veinsmobility 	maxSpeed 	13.999971835823
scalar RSUExampleScenario.node[150].veinsmobility 	totalDistance 	3409.5609810567
scalar RSUExampleScenario.node[150].veinsmobility 	totalCO2Emission 	778.05881550416
scalar RSUExampleScenario.node[151].veinsmobility 	startTime 	453.1
scalar RSUExampleScenario.node[151].veinsmobility 	totalTime 	356.6
scalar RSUExampleScenario.node[151].veinsmobility 	stopTime 	809.8
scalar RSUExampleScenario.node[151].veinsmobility 	minSpeed 	0.25738808143721
scalar RSUExampleScenario.node[151].veinsmobility 	maxSpeed 	13.999927898606
scalar RSUExampleScenario.node[151].veinsmobility 	totalDistance 	3413.797822597
scalar RSUExampleScenario.node[151].veinsmobility 	totalCO2Emission 	777.32928149085
scalar RSUExampleScenario.node[152].veinsmobility 	startTime 	456.1
scalar RSUExampleScenario.node[152].veinsmobility 	totalTime 	357.3
scalar RSUExampleScenario.node[152].veinsmobility 	stopTime 	813.5
scalar RSUExampleScenario.node[152].veinsmobility 	minSpeed 	0.25800492860354
scalar RSUExampleScenario.node[152].veinsmobility 	maxSpeed 	13.999971877986
scalar RSUExampleScenario.node[152].veinsmobility 	totalDistance 	3409.9808924701
[...]
scalar RSUExampleScenario.node[628].veinsmobility 	totalCO2Emission 	324.09920167017
scalar RSUExampleScenario.node[629].veinsmobility 	startTime 	1887.1
scalar RSUExampleScenario.node[629].veinsmobility 	totalTime 	112.8
scalar RSUExampleScenario.node[629].veinsmobility 	stopTime 	2000
scalar RSUExampleScenario.node[629].veinsmobility 	minSpeed 	0.25582238914189
scalar RSUExampleScenario.node[629].veinsmobility 	maxSpeed 	13.999862353136
scalar RSUExampleScenario.node[629].veinsmobility 	totalDistance 	1363.081136858
scalar RSUExampleScenario.node[629].veinsmobility 	totalCO2Emission 	317.90142082485
scalar RSUExampleScenario.node[630].veinsmobility 	startTime 	1890.1
scalar RSUExampleScenario.node[630].veinsmobility 	totalTime 	109.8
scalar RSUExampleScenario.node[630].veinsmobility 	stopTime 	2000
scalar RSUExampleScenario.node[630].veinsmobility 	minSpeed 	0.25834158404614
scalar RSUExampleScenario.node[630].veinsmobility 	maxSpeed 	13.999264251089
scalar RSUExampleScenario.node[630].veinsmobility 	totalDistance 	1320.6917542337
scalar RSUExampleScenario.node[630].veinsmobility 	totalCO2Emission 	309.25777500417
scalar RSUExampleScenario.node[631].veinsmobility 	startTime 	1893.1
scalar RSUExampleScenario.node[631].veinsmobility 	totalTime 	106.8
scalar RSUExampleScenario.node[631].veinsmobility 	stopTime 	2000
scalar RSUExampleScenario.node[631].veinsmobility 	minSpeed 	0.24781440299051
scalar RSUExampleScenario.node[631].veinsmobility 	maxSpeed 	13.999938177764
scalar RSUExampleScenario.node[631].veinsmobility 	totalDistance 	1278.5272133541
scalar RSUExampleScenario.node[631].veinsmobility 	totalCO2Emission 	301.92179363076
scalar RSUExampleScenario.node[632].veinsmobility 	startTime 	1896.1
scalar RSUExampleScenario.node[632].veinsmobility 	totalTime 	103.8
scalar RSUExampleScenario.node[632].veinsmobility 	stopTime 	2000
scalar RSUExampleScenario.node[632].veinsmobility 	minSpeed 	0.25493557481002
scalar RSUExampleScenario.node[632].veinsmobility 	maxSpeed 	13.999580027247
scalar RSUExampleScenario.node[632].veinsmobility 	totalDistance 	1237.3817441445
scalar RSUExampleScenario.node[632].veinsmobility 	totalCO2Emission 	295.9525169782
scalar RSUExampleScenario.node[633].veinsmobility 	startTime 	1899.1
scalar RSUExampleScenario.node[633].veinsmobility 	totalTime 	100.8
scalar RSUExampleScenario.node[633].veinsmobility 	stopTime 	2000
scalar RSUExampleScenario.node[633].veinsmobility 	minSpeed 	0.25982932795072
scalar RSUExampleScenario.node[633].veinsmobility 	maxSpeed 	13.999754808962
scalar RSUExampleScenario.node[633].veinsmobility 	totalDistance 	1194.1737928136
scalar RSUExampleScenario.node[633].veinsmobility 	totalCO2Emission 	288.49261064595
scalar RSUExampleScenario.node[634].veinsmobility 	startTime 	1902.1
scalar RSUExampleScenario.node[634].veinsmobility 	totalTime 	97.8
scalar RSUExampleScenario.node[634].veinsmobility 	stopTime 	2000
scalar RSUExampleScenario.node[634].veinsmobility 	minSpeed 	0.24759995496785
scalar RSUExampleScenario.node[634].veinsmobility 	maxSpeed 	13.999620274373
scalar RSUExampleScenario.node[634].veinsmobility 	totalDistance 	1153.9922885499
scalar RSUExampleScenario.node[634].veinsmobility 	totalCO2Emission 	282.23707494929
scalar RSUExampleScenario.node[635].veinsmobility 	startTime 	1905.1
scalar RSUExampleScenario.node[635].veinsmobility 	totalTime 	94.8
scalar RSUExampleScenario.node[635].veinsmobility 	stopTime 	2000
scalar RSUExampleScenario.node[635].veinsmobility 	minSpeed 	0.24790098303533
scalar RSUExampleScenario.node[635].veinsmobility 	maxSpeed 	13.99961622264
scalar RSUExampleScenario.node[635].veinsmobility 	totalDistance 	1111.1761901565
scalar RSUExampleScenario.node[635].veinsmobility 	totalCO2Emission 	273.17083935141
scalar RSUExampleScenario.node[636].veinsmobility 	startTime 	1908.1
scalar RSUExampleScenario.node[636].veinsmobility 	totalTime 	91.8
scalar RSUExampleScenario.node[636].veinsmobility 	stopTime 	2000
scalar RSUExampleScenario.node[636].veinsmobility 	minSpeed 	0.25993216640968
scalar RSUExampleScenario.node[636].veinsmobility 	maxSpeed 	13.999498657009
scalar RSUExampleScenario.node[636].veinsmobility 	totalDistance 	1071.6197687531
scalar RSUExampleScenario.node[636].veinsmobility 	totalCO2Emission 	268.8522904784
scalar RSUExampleScenario.node[637].veinsmobility 	startTime 	1911.1
scalar RSUExampleScenario.node[637].veinsmobility 	totalTime 	88.8
scalar RSUExampleScenario.node[637].veinsmobility 	stopTime 	2000
scalar RSUExampleScenario.node[637].veinsmobility 	minSpeed 	0.24750544367009
scalar RSUExampleScenario.node[637].veinsmobility 	maxSpeed 	13.999993861865
scalar RSUExampleScenario.node[637].veinsmobility 	totalDistance 	1028.2194921442
scalar RSUExampleScenario.node[637].veinsmobility 	totalCO2Emission 	260.9358492665
scalar RSUExampleScenario.node[638].veinsmobility 	startTime 	1914.1
scalar RSUExampleScenario.node[638].veinsmobility 	totalTime 	85.8
scalar RSUExampleScenario.node[638].veinsmobility 	stopTime 	2000
scalar RSUExampleScenario.node[638].veinsmobility 	minSpeed 	0.24848888274655
scalar RSUExampleScenario.node[638].veinsmobility 	maxSpeed 	13.99972796126
scalar RSUExampleScenario.node[638].veinsmobility 	totalDistance 	986.38648682343
scalar RSUExampleScenario.node[638].veinsmobility 	totalCO2Emission 	251.54487030654
scalar RSUExampleScenario.node[639].veinsmobility 	startTime 	1917.1
scalar RSUExampleScenario.node[639].veinsmobility 	totalTime 	82.8
scalar RSUExampleScenario.node[639].veinsmobility 	stopTime 	2000
scalar RSUExampleScenario.node[639].veinsmobility 	minSpeed 	0.25560488670738
scalar RSUExampleScenario.node[639].veinsmobility 	maxSpeed 	13.999803507635
scalar RSUExampleScenario.node[639].veinsmobility 	totalDistance 	953.21768008135
scalar RSUExampleScenario.node[639].veinsmobility 	totalCO2Emission 	230.68102871467
scalar RSUExampleScenario.node[640].veinsmobility 	startTime 	1920.1
scalar RSUExampleScenario.node[640].veinsmobility 	totalTime 	79.8
scalar RSUExampleScenario.node[640].veinsmobility 	stopTime 	2000
scalar RSUExampleScenario.node[640].veinsmobility 	minSpeed 	0.25569612865429
scalar RSUExampleScenario.node[640].veinsmobility 	maxSpeed 	13.999486082993
scalar RSUExampleScenario.node[640].veinsmobility 	totalDistance 	937.30235849272
scalar RSUExampleScenario.node[640].veinsmobility 	totalCO2Emission 	223.34523043515
scalar RSUExampleScenario.node[641].veinsmobility 	startTime 	1923.1
scalar RSUExampleScenario.node[641].veinsmobility 	totalTime 	76.8
scalar RSUExampleScenario.node[641].veinsmobility 	stopTime 	2000
scalar RSUExampleScenario.node[641].veinsmobility 	minSpeed 	0.25666723147826
scalar RSUExampleScenario.node[641].veinsmobility 	maxSpeed 	13.999705827252
scalar RSUExampleScenario.node[641].veinsmobility 	totalDistance 	913.32832704942
scalar RSUExampleScenario.node[641].veinsmobility 	totalCO2Emission 	219.97091444669
scalar RSUExampleScenario.node[642].veinsmobility 	startTime 	1926.1
scalar RSUExampleScenario.node[642].veinsmobility 	totalTime 	73.8
scalar RSUExampleScenario.node[642].veinsmobility 	stopTime 	2000
scalar RSUExampleScenario.node[642].veinsmobility 	minSpeed 	0.25634879859071
scalar RSUExampleScenario.node[642].veinsmobility 	maxSpeed 	13.999259659133
scalar RSUExampleScenario.node[642].veinsmobility 	totalDistance 	871.8346416191
scalar RSUExampleScenario.node[642].veinsmobility 	totalCO2Emission 	213.33930323896
scalar RSUExampleScenario.node[643].veinsmobility 	startTime 	1929.1
scalar RSUExampleScenario.node[643].veinsmobility 	totalTime 	70.8
scalar RSUExampleScenario.node[643].veinsmobility 	stopTime 	2000
scalar RSUExampleScenario.node[643].veinsmobility 	minSpeed 	0.25402912083967
scalar RSUExampleScenario.node[643].veinsmobility 	maxSpeed 	13.999878504465
scalar RSUExampleScenario.node[643].veinsmobility 	totalDistance 	830.66906058522
scalar RSUExampleScenario.node[643].veinsmobility 	totalCO2Emission 	206.13396593503
scalar RSUExampleScenario.node[644].veinsmobility 	startTime 	1932.1
scalar RSUExampleScenario.node[644].veinsmobility 	totalTime 	67.8
scalar RSUExampleScenario.node[644].veinsmobility 	stopTime 	2000
scalar RSUExampleScenario.node[644].veinsmobility 	minSpeed 	0.2572822999435
scalar RSUExampleScenario.node[644].veinsmobility 	maxSpeed 	13.999959642335
scalar RSUExampleScenario.node[644].veinsmobility 	totalDistance 	790.18810402513
scalar RSUExampleScenario.node[644].veinsmobility 	totalCO2Emission 	200.62993750454
scalar RSUExampleScenario.node[645].veinsmobility 	startTime 	1935.1
scalar RSUExampleScenario.node[645].veinsmobility 	totalTime 	64.8
scalar RSUExampleScenario.node[645].veinsmobility 	stopTime 	2000
scalar RSUExampleScenario.node[645].veinsmobility 	minSpeed 	0.25020210366417
scalar RSUExampleScenario.node[645].veinsmobility 	maxSpeed 	13.999705715352
scalar RSUExampleScenario.node[645].veinsmobility 	totalDistance 	747.92940277964
scalar RSUExampleScenario.node[645].veinsmobility 	totalCO2Emission 	191.90573644421
scalar RSUExampleScenario.node[646].veinsmobility 	startTime 	1938.1
scalar RSUExampleScenario.node[646].veinsmobility 	totalTime 	61.8
scalar RSUExampleScenario.node[646].veinsmobility 	stopTime 	2000
scalar RSUExampleScenario.node[646].veinsmobility 	minSpeed 	0.25393389677024
scalar RSUExampleScenario.node[646].veinsmobility 	maxSpeed 	13.999778599779
scalar RSUExampleScenario.node[646].veinsmobility 	totalDistance 	704.81776428308
scalar RSUExampleScenario.node[646].veinsmobility 	totalCO2Emission 	185.7889100219
scalar RSUExampleScenario.node[647].veinsmobility 	startTime 	1941.1
scalar RSUExampleScenario.node[647].veinsmobility 	totalTime 	58.8
scalar RSUExampleScenario.node[647].veinsmobility 	stopTime 	2000
scalar RSUExampleScenario.node[647].veinsmobility 	minSpeed 	0.25466773052583
scalar RSUExampleScenario.node[647].veinsmobility 	maxSpeed 	13.999968629535
scalar RSUExampleScenario.node[647].veinsmobility 	totalDistance 	663.82025633439
scalar RSUExampleScenario.node[647].veinsmobility 	totalCO2Emission 	178.19465944061
scalar RSUExampleScenario.node[648].veinsmobility 	startTime 	1944.1
scalar RSUExampleScenario.node[648].veinsmobility 	totalTime 	55.8
scalar RSUExampleScenario.node[648].veinsmobility 	stopTime 	2000
scalar RSUExampleScenario.node[648].veinsmobility 	minSpeed 	0.25147703704401
scalar RSUExampleScenario.node[648].veinsmobility 	maxSpeed 	13.99969156065
scalar RSUExampleScenario.node[648].veinsmobility 	totalDistance 	621.22756374785
scalar RSUExampleScenario.node[648].veinsmobility 	totalCO2Emission 	171.54291635986
scalar RSUExampleScenario.node[649].veinsmobility 	startTime 	1947.1
scalar RSUExampleScenario.node[649].veinsmobility 	totalTime 	52.8
scalar RSUExampleScenario.node[649].veinsmobility 	stopTime 	2000
scalar RSUExampleScenario.node[649].veinsmobility 	minSpeed 	0.25934424525965
scalar RSUExampleScenario.node[649].veinsmobility 	maxSpeed 	13.999482845953
scalar RSUExampleScenario.node[649].veinsmobility 	totalDistance 	581.32801035242
scalar RSUExampleScenario.node[649].veinsmobility 	totalCO2Emission 	165.37344974249
scalar RSUExampleScenario.node[650].veinsmobility 	startTime 	1950.1
scalar RSUExampleScenario.node[650].veinsmobility 	totalTime 	49.8
scalar RSUExampleScenario.node[650].veinsmobility 	stopTime 	2000
scalar RSUExampleScenario.node[650].veinsmobility 	minSpeed 	0.2507282122008
scalar RSUExampleScenario.node[650].veinsmobility 	maxSpeed 	13.999229742561
scalar RSUExampleScenario.node[650].veinsmobility 	totalDistance 	538.13690070937
scalar RSUExampleScenario.node[650].veinsmobility 	totalCO2Emission 	156.91920709448
scalar RSUExampleScenario.node[651].veinsmobility 	startTime 	1953.1
scalar RSUExampleScenario.node[651].veinsmobility 	totalTime 	46.8
scalar RSUExampleScenario.node[651].veinsmobility 	stopTime 	2000
scalar RSUExampleScenario.node[651].veinsmobility 	minSpeed 	0.24836593078868
scalar RSUExampleScenario.node[651].veinsmobility 	maxSpeed 	13.99935844
scalar RSUExampleScenario.node[651].veinsmobility 	totalDistance 	496.79330220409
scalar RSUExampleScenario.node[651].veinsmobility 	totalCO2Emission 	151.63400231751
scalar RSUExampleScenario.node[652].veinsmobility 	startTime 	1956.1
scalar RSUExampleScenario.node[652].veinsmobility 	totalTime 	43.8
scalar RSUExampleScenario.node[652].veinsmobility 	stopTime 	2000
scalar RSUExampleScenario.node[652].veinsmobility 	minSpeed 	0.24996746767429
scalar RSUExampleScenario.node[652].veinsmobility 	maxSpeed 	13.999787555258
scalar RSUExampleScenario.node[652].veinsmobility 	totalDistance 	453.25394501623
scalar RSUExampleScenario.node[652].veinsmobility 	totalCO2Emission 	144.70727514716
scalar RSUExampleScenario.node[653].veinsmobility 	startTime 	1959.1
scalar RSUExampleScenario.node[653].veinsmobility 	totalTime 	40.8
scalar RSUExampleScenario.node[653].veinsmobility 	stopTime 	2000
scalar RSUExampleScenario.node[653].veinsmobility 	minSpeed 	0.25558924741275
scalar RSUExampleScenario.node[653].veinsmobility 	maxSpeed 	13.999932405872
scalar RSUExampleScenario.node[653].veinsmobility 	totalDistance 	412.39495755639
scalar RSUExampleScenario.node[653].veinsmobility 	totalCO2Emission 	136.42781327137
scalar RSUExampleScenario.node[654].veinsmobility 	startTime 	1962.1
scalar RSUExampleScenario.node[654].veinsmobility 	totalTime 	37.8
scalar RSUExampleScenario.node[654].veinsmobility 	stopTime 	2000
scalar RSUExampleScenario.node[654].veinsmobility 	minSpeed 	0.25208028320409
scalar RSUExampleScenario.node[654].veinsmobility 	maxSpeed 	13.999299221113
scalar RSUExampleScenario.node[654].veinsmobility 	totalDistance 	369.89228129767
scalar RSUExampleScenario.node[654].veinsmobility 	totalCO2Emission 	128.45292992783
scalar RSUExampleScenario.node[655].veinsmobility 	startTime 	1965.1
scalar RSUExampleScenario.node[655].veinsmobility 	totalTime 	34.8
scalar RSUExampleScenario.node[655].veinsmobility 	stopTime 	2000
scalar RSUExampleScenario.node[655].veinsmobility 	minSpeed 	0.24982500350312
scalar RSUExampleScenario.node[655].veinsmobility 	maxSpeed 	13.994237386766
scalar RSUExampleScenario.node[655].veinsmobility 	totalDistance 	329.91817503814
scalar RSUExampleScenario.node[655].veinsmobility 	totalCO2Emission 	123.2630497614
scalar RSUExampleScenario.node[656].veinsmobility 	startTime 	1968.1
scalar RSUExampleScenario.node[656].veinsmobility 	totalTime 	31.8
scalar RSUExampleScenario.node[656].veinsmobility 	stopTime 	2000
scalar RSUExampleScenario.node[656].veinsmobility 	minSpeed 	0.24888918740931
scalar RSUExampleScenario.node[656].veinsmobility 	maxSpeed 	13.980955070732
scalar RSUExampleScenario.node[656].veinsmobility 	totalDistance 	287.33810965678
scalar RSUExampleScenario.node[656].veinsmobility 	totalCO2Emission 	115.06707244442
scalar RSUExampleScenario.node[657].veinsmobility 	startTime 	1971.1
scalar RSUExampleScenario.node[657].veinsmobility 	totalTime 	28.8
scalar RSUExampleScenario.node[657].veinsmobility 	stopTime 	2000
scalar RSUExampleScenario.node[657].veinsmobility 	minSpeed 	0.2567676653699
scalar RSUExampleScenario.node[657].veinsmobility 	maxSpeed 	13.885868345648
scalar RSUExampleScenario.node[657].veinsmobility 	totalDistance 	248.15797625653
scalar RSUExampleScenario.node[657].veinsmobility 	totalCO2Emission 	98.265546281603
scalar RSUExampleScenario.node[658].veinsmobility 	startTime 	1974.1
scalar RSUExampleScenario.node[658].veinsmobility 	totalTime 	25.8
scalar RSUExampleScenario.node[658].veinsmobility 	stopTime 	2000
scalar RSUExampleScenario.node[658].veinsmobility 	minSpeed 	0.2556694858307
scalar RSUExampleScenario.node[658].veinsmobility 	maxSpeed 	13.884306607768
scalar RSUExampleScenario.node[658].veinsmobility 	totalDistance 	226.10699282067
scalar RSUExampleScenario.node[658].veinsmobility 	totalCO2Emission 	83.095939343032
scalar RSUExampleScenario.node[659].veinsmobility 	startTime 	1977.1
scalar RSUExampleScenario.node[659].veinsmobility 	totalTime 	22.8
scalar RSUExampleScenario.node[659].veinsmobility 	stopTime 	2000
scalar RSUExampleScenario.node[659].veinsmobility 	minSpeed 	0.24788489376171
scalar RSUExampleScenario.node[659].veinsmobility 	maxSpeed 	13.886344188317
scalar RSUExampleScenario.node[659].veinsmobility 	totalDistance 	207.80999643172
scalar RSUExampleScenario.node[659].veinsmobility 	totalCO2Emission 	79.033997834037
scalar RSUExampleScenario.node[660].veinsmobility 	startTime 	1980.1
scalar RSUExampleScenario.node[660].veinsmobility 	totalTime 	19.8
scalar RSUExampleScenario.node[660].veinsmobility 	stopTime 	2000
scalar RSUExampleScenario.node[660].veinsmobility 	minSpeed 	0.25569494507019
scalar RSUExampleScenario.node[660].veinsmobility 	maxSpeed 	13.882726528791
scalar RSUExampleScenario.node[660].veinsmobility 	totalDistance 	174.86070690198
scalar RSUExampleScenario.node[660].veinsmobility 	totalCO2Emission 	75.600150218953
scalar RSUExampleScenario.node[661].veinsmobility 	startTime 	1983.1
scalar RSUExampleScenario.node[661].veinsmobility 	totalTime 	16.8
scalar RSUExampleScenario.node[661].veinsmobility 	stopTime 	2000
scalar RSUExampleScenario.node[661].veinsmobility 	minSpeed 	0.25786055366602
scalar RSUExampleScenario.node[661].veinsmobility 	maxSpeed 	13.875536899867
scalar RSUExampleScenario.node[661].veinsmobility 	totalDistance 	136.86866392068
scalar RSUExampleScenario.node[661].veinsmobility 	totalCO2Emission 	57.876911478781
scalar RSUExampleScenario.node[662].veinsmobility 	startTime 	1986.1
scalar RSUExampleScenario.node[662].veinsmobility 	totalTime 	13.8
scalar RSUExampleScenario.node[662].veinsmobility 	stopTime 	2000
scalar RSUExampleScenario.node[662].veinsmobility 	minSpeed 	0.2532800918268
scalar RSUExampleScenario.node[662].veinsmobility 	maxSpeed 	13.885629123941
scalar RSUExampleScenario.node[662].veinsmobility 	totalDistance 	116.41026423156
scalar RSUExampleScenario.node[662].veinsmobility 	totalCO2Emission 	42.925091093669
scalar RSUExampleScenario.node[663].veinsmobility 	startTime 	1989.1
scalar RSUExampleScenario.node[663].veinsmobility 	totalTime 	10.8
scalar RSUExampleScenario.node[663].veinsmobility 	stopTime 	2000
scalar RSUExampleScenario.node[663].veinsmobility 	minSpeed 	0.25250707790977
scalar RSUExampleScenario.node[663].veinsmobility 	maxSpeed 	13.864841842921
scalar RSUExampleScenario.node[663].veinsmobility 	totalDistance 	97.471973856546
scalar RSUExampleScenario.node[663].veinsmobility 	totalCO2Emission 	39.084226315783
scalar RSUExampleScenario.node[664].veinsmobility 	startTime 	1992.1
scalar RSUExampleScenario.node[664].veinsmobility 	totalTime 	7.8
scalar RSUExampleScenario.node[664].veinsmobility 	stopTime 	2000
scalar RSUExampleScenario.node[664].veinsmobility 	minSpeed 	0.24948334485665
scalar RSUExampleScenario.node[664].veinsmobility 	maxSpeed 	13.876045589382
scalar RSUExampleScenario.node[664].veinsmobility 	totalDistance 	60.943015436979
scalar RSUExampleScenario.node[664].veinsmobility 	totalCO2Emission 	35.458523328026
scalar RSUExampleScenario.node[665].veinsmobility 	startTime 	1995.1
scalar RSUExampleScenario.node[665].veinsmobility 	totalTime 	4.8
scalar RSUExampleScenario.node[665].veinsmobility 	stopTime 	2000
scalar RSUExampleScenario.node[665].veinsmobility 	minSpeed 	0.25273068415863
scalar RSUExampleScenario.node[665].veinsmobility 	maxSpeed 	9.9601433941528
scalar RSUExampleScenario.node[665].veinsmobility 	totalDistance 	24.993094122848
scalar RSUExampleScenario.node[665].veinsmobility 	totalCO2Emission 	18.734838249308
scalar RSUExampleScenario.node[666].veinsmobility 	startTime 	1998.1
scalar RSUExampleScenario.node[666].veinsmobility 	totalTime 	1.8
scalar RSUExampleScenario.node[666].veinsmobility 	stopTime 	2000
scalar RSUExampleScenario.node[666].veinsmobility 	minSpeed 	0.25330193604901
scalar RSUExampleScenario.node[666].veinsmobility 	maxSpeed 	3.7929139848028
scalar RSUExampleScenario.node[666].veinsmobility 	totalDistance 	3.7890544639492
scalar RSUExampleScenario.node[666].veinsmobility 	totalCO2Emission 	3.8880725749207
