version 2
run statisticLeach-243-20150323-05:24:34-11144
attr c 14
attr configname statisticLeach
attr datetime 20150323-05:24:34
attr experiment statisticLeach
attr inifile omnetpp.ini
attr iterationvars "$p=1/15, $c=14"
attr iterationvars2 "$p=1/15, $c=14, $repetition=3"
attr measurement "$p=1/15, $c=14"
attr network RSUExampleScenario
attr p 1/15
attr processid 11144
attr repetition 3
attr replication #3
attr resultdir results
attr runnumber 243
attr seedset 243

scalar . 	c 	14
scalar RSUExampleScenario.node[0].appl 	meanClusterNodes 	3
scalar RSUExampleScenario.node[0].appl 	meanClusterHeadUtility 	9.0181106926174
scalar RSUExampleScenario.node[0].appl 	NumberofCH 	0.10810810810811
scalar RSUExampleScenario.node[0].appl 	NumberofON 	0.10810810810811
scalar RSUExampleScenario.node[0].appl 	NumberofFN 	0.78378378378378
scalar RSUExampleScenario.node[0].veinsmobility 	startTime 	0.1
scalar RSUExampleScenario.node[0].veinsmobility 	totalTime 	449.9
scalar RSUExampleScenario.node[0].veinsmobility 	stopTime 	450
scalar RSUExampleScenario.node[0].veinsmobility 	minSpeed 	0
scalar RSUExampleScenario.node[0].veinsmobility 	maxSpeed 	13.999979945947
scalar RSUExampleScenario.node[0].veinsmobility 	totalDistance 	3133.9662773688
scalar RSUExampleScenario.node[0].veinsmobility 	totalCO2Emission 	839.43852457616
scalar RSUExampleScenario.node[1].appl 	meanClusterNodes 	2
scalar RSUExampleScenario.node[1].appl 	meanClusterHeadUtility 	11.51138749237
scalar RSUExampleScenario.node[1].appl 	NumberofCH 	0.081081081081081
scalar RSUExampleScenario.node[1].appl 	NumberofON 	0.21621621621622
scalar RSUExampleScenario.node[1].appl 	NumberofFN 	0.7027027027027
scalar RSUExampleScenario.node[1].veinsmobility 	startTime 	2.5
scalar RSUExampleScenario.node[1].veinsmobility 	totalTime 	447.5
scalar RSUExampleScenario.node[1].veinsmobility 	stopTime 	450
scalar RSUExampleScenario.node[1].veinsmobility 	minSpeed 	0
scalar RSUExampleScenario.node[1].veinsmobility 	maxSpeed 	13.999958210539
scalar RSUExampleScenario.node[1].veinsmobility 	totalDistance 	3083.4517328921
scalar RSUExampleScenario.node[1].veinsmobility 	totalCO2Emission 	830.81009821837
scalar RSUExampleScenario.node[10].appl 	meanClusterNodes 	3.5
scalar RSUExampleScenario.node[10].appl 	meanClusterHeadUtility 	19.426100489511
scalar RSUExampleScenario.node[10].appl 	NumberofCH 	0.054054054054054
scalar RSUExampleScenario.node[10].appl 	NumberofON 	0.2972972972973
scalar RSUExampleScenario.node[10].appl 	NumberofFN 	0.64864864864865
scalar RSUExampleScenario.node[10].veinsmobility 	startTime 	24.2
scalar RSUExampleScenario.node[10].veinsmobility 	totalTime 	425.8
scalar RSUExampleScenario.node[10].veinsmobility 	stopTime 	450
scalar RSUExampleScenario.node[10].veinsmobility 	minSpeed 	0
scalar RSUExampleScenario.node[10].veinsmobility 	maxSpeed 	13.999969229538
scalar RSUExampleScenario.node[10].veinsmobility 	totalDistance 	2788.1017925765
scalar RSUExampleScenario.node[10].veinsmobility 	totalCO2Emission 	761.05741080885
scalar RSUExampleScenario.node[11].appl 	meanClusterNodes 	4
scalar RSUExampleScenario.node[11].appl 	meanClusterHeadUtility 	20.074071528223
scalar RSUExampleScenario.node[11].appl 	NumberofCH 	0.054054054054054
scalar RSUExampleScenario.node[11].appl 	NumberofON 	0.24324324324324
scalar RSUExampleScenario.node[11].appl 	NumberofFN 	0.7027027027027
scalar RSUExampleScenario.node[11].veinsmobility 	startTime 	26.6
scalar RSUExampleScenario.node[11].veinsmobility 	totalTime 	423.4
scalar RSUExampleScenario.node[11].veinsmobility 	stopTime 	450
scalar RSUExampleScenario.node[11].veinsmobility 	minSpeed 	0
scalar RSUExampleScenario.node[11].veinsmobility 	maxSpeed 	13.999911655202
scalar RSUExampleScenario.node[11].veinsmobility 	totalDistance 	2757.6800530484
scalar RSUExampleScenario.node[11].veinsmobility 	totalCO2Emission 	750.55564233606
scalar RSUExampleScenario.node[12].appl 	meanClusterNodes 	5.5
scalar RSUExampleScenario.node[12].appl 	meanClusterHeadUtility 	17.670436732365
scalar RSUExampleScenario.node[12].appl 	NumberofCH 	0.054054054054054
scalar RSUExampleScenario.node[12].appl 	NumberofON 	0.48648648648649
scalar RSUExampleScenario.node[12].appl 	NumberofFN 	0.45945945945946
scalar RSUExampleScenario.node[12].veinsmobility 	startTime 	29
scalar RSUExampleScenario.node[12].veinsmobility 	totalTime 	421
scalar RSUExampleScenario.node[12].veinsmobility 	stopTime 	450
scalar RSUExampleScenario.node[12].veinsmobility 	minSpeed 	0
scalar RSUExampleScenario.node[12].veinsmobility 	maxSpeed 	13.999973295133
scalar RSUExampleScenario.node[12].veinsmobility 	totalDistance 	2719.1657312058
scalar RSUExampleScenario.node[12].veinsmobility 	totalCO2Emission 	744.30135467624
scalar RSUExampleScenario.node[13].appl 	meanClusterNodes 	0
scalar RSUExampleScenario.node[13].appl 	meanClusterHeadUtility 	0
scalar RSUExampleScenario.node[13].appl 	NumberofCH 	0
scalar RSUExampleScenario.node[13].appl 	NumberofON 	0.2972972972973
scalar RSUExampleScenario.node[13].appl 	NumberofFN 	0.7027027027027
scalar RSUExampleScenario.node[13].veinsmobility 	startTime 	31.4
scalar RSUExampleScenario.node[13].veinsmobility 	totalTime 	418.6
scalar RSUExampleScenario.node[13].veinsmobility 	stopTime 	450
scalar RSUExampleScenario.node[13].veinsmobility 	minSpeed 	0
scalar RSUExampleScenario.node[13].veinsmobility 	maxSpeed 	13.999973106291
scalar RSUExampleScenario.node[13].veinsmobility 	totalDistance 	2684.0994641696
scalar RSUExampleScenario.node[13].veinsmobility 	totalCO2Emission 	739.81941863869
scalar RSUExampleScenario.node[14].appl 	meanClusterNodes 	0
scalar RSUExampleScenario.node[14].appl 	meanClusterHeadUtility 	0
scalar RSUExampleScenario.node[14].appl 	NumberofCH 	0
scalar RSUExampleScenario.node[14].appl 	NumberofON 	0.40540540540541
scalar RSUExampleScenario.node[14].appl 	NumberofFN 	0.59459459459459
scalar RSUExampleScenario.node[14].veinsmobility 	startTime 	33.8
scalar RSUExampleScenario.node[14].veinsmobility 	totalTime 	416.2
scalar RSUExampleScenario.node[14].veinsmobility 	stopTime 	450
scalar RSUExampleScenario.node[14].veinsmobility 	minSpeed 	0
scalar RSUExampleScenario.node[14].veinsmobility 	maxSpeed 	13.999908920187
scalar RSUExampleScenario.node[14].veinsmobility 	totalDistance 	2648.9072553968
scalar RSUExampleScenario.node[14].veinsmobility 	totalCO2Emission 	737.53176657662
scalar RSUExampleScenario.node[15].appl 	meanClusterNodes 	0
scalar RSUExampleScenario.node[15].appl 	meanClusterHeadUtility 	0
scalar RSUExampleScenario.node[15].appl 	NumberofCH 	0.054054054054054
scalar RSUExampleScenario.node[15].appl 	NumberofON 	0
scalar RSUExampleScenario.node[15].appl 	NumberofFN 	0.94594594594595
scalar RSUExampleScenario.node[15].veinsmobility 	startTime 	36.2
scalar RSUExampleScenario.node[15].veinsmobility 	totalTime 	413.8
scalar RSUExampleScenario.node[15].veinsmobility 	stopTime 	450
scalar RSUExampleScenario.node[15].veinsmobility 	minSpeed 	0
scalar RSUExampleScenario.node[15].veinsmobility 	maxSpeed 	13.99996686243
scalar RSUExampleScenario.node[15].veinsmobility 	totalDistance 	2618.2257506658
scalar RSUExampleScenario.node[15].veinsmobility 	totalCO2Emission 	731.47200727369
scalar RSUExampleScenario.node[16].appl 	meanClusterNodes 	6.5
scalar RSUExampleScenario.node[16].appl 	meanClusterHeadUtility 	8.3921853038695
scalar RSUExampleScenario.node[16].appl 	NumberofCH 	0.10810810810811
scalar RSUExampleScenario.node[16].appl 	NumberofON 	0.2972972972973
scalar RSUExampleScenario.node[16].appl 	NumberofFN 	0.59459459459459
scalar RSUExampleScenario.node[16].veinsmobility 	startTime 	38.6
scalar RSUExampleScenario.node[16].veinsmobility 	totalTime 	411.4
scalar RSUExampleScenario.node[16].veinsmobility 	stopTime 	450
scalar RSUExampleScenario.node[16].veinsmobility 	minSpeed 	0
scalar RSUExampleScenario.node[16].veinsmobility 	maxSpeed 	13.99986884132
scalar RSUExampleScenario.node[16].veinsmobility 	totalDistance 	2580.4173356146
scalar RSUExampleScenario.node[16].veinsmobility 	totalCO2Emission 	726.51595938701
scalar RSUExampleScenario.node[17].appl 	meanClusterNodes 	2.5
scalar RSUExampleScenario.node[17].appl 	meanClusterHeadUtility 	18.104648579724
scalar RSUExampleScenario.node[17].appl 	NumberofCH 	0.054054054054054
scalar RSUExampleScenario.node[17].appl 	NumberofON 	0.59459459459459
scalar RSUExampleScenario.node[17].appl 	NumberofFN 	0.35135135135135
scalar RSUExampleScenario.node[17].veinsmobility 	startTime 	41
scalar RSUExampleScenario.node[17].veinsmobility 	totalTime 	409
scalar RSUExampleScenario.node[17].veinsmobility 	stopTime 	450
scalar RSUExampleScenario.node[17].veinsmobility 	minSpeed 	0
scalar RSUExampleScenario.node[17].veinsmobility 	maxSpeed 	13.999783671331
scalar RSUExampleScenario.node[17].veinsmobility 	totalDistance 	2543.9393822492
scalar RSUExampleScenario.node[17].veinsmobility 	totalCO2Emission 	720.40700347922
scalar RSUExampleScenario.node[18].appl 	meanClusterNodes 	0
scalar RSUExampleScenario.node[18].appl 	meanClusterHeadUtility 	0
scalar RSUExampleScenario.node[18].appl 	NumberofCH 	0
scalar RSUExampleScenario.node[18].appl 	NumberofON 	0.24324324324324
scalar RSUExampleScenario.node[18].appl 	NumberofFN 	0.75675675675676
scalar RSUExampleScenario.node[18].veinsmobility 	startTime 	43.4
scalar RSUExampleScenario.node[18].veinsmobility 	totalTime 	406.6
scalar RSUExampleScenario.node[18].veinsmobility 	stopTime 	450
scalar RSUExampleScenario.node[18].veinsmobility 	minSpeed 	0
scalar RSUExampleScenario.node[18].veinsmobility 	maxSpeed 	13.999922991591
scalar RSUExampleScenario.node[18].veinsmobility 	totalDistance 	2505.7957883968
scalar RSUExampleScenario.node[18].veinsmobility 	totalCO2Emission 	715.68725272991
scalar RSUExampleScenario.node[19].appl 	meanClusterNodes 	7
scalar RSUExampleScenario.node[19].appl 	meanClusterHeadUtility 	17.611968790433
scalar RSUExampleScenario.node[19].appl 	NumberofCH 	0.054054054054054
scalar RSUExampleScenario.node[19].appl 	NumberofON 	0.27027027027027
scalar RSUExampleScenario.node[19].appl 	NumberofFN 	0.67567567567568
scalar RSUExampleScenario.node[19].veinsmobility 	startTime 	45.8
scalar RSUExampleScenario.node[19].veinsmobility 	totalTime 	404.2
scalar RSUExampleScenario.node[19].veinsmobility 	stopTime 	450
scalar RSUExampleScenario.node[19].veinsmobility 	minSpeed 	0
scalar RSUExampleScenario.node[19].veinsmobility 	maxSpeed 	13.999939299254
scalar RSUExampleScenario.node[19].veinsmobility 	totalDistance 	2475.5779340425
scalar RSUExampleScenario.node[19].veinsmobility 	totalCO2Emission 	702.56396770087
scalar RSUExampleScenario.node[2].appl 	meanClusterNodes 	3
scalar RSUExampleScenario.node[2].appl 	meanClusterHeadUtility 	19.512708906749
scalar RSUExampleScenario.node[2].appl 	NumberofCH 	0.054054054054054
scalar RSUExampleScenario.node[2].appl 	NumberofON 	0.054054054054054
scalar RSUExampleScenario.node[2].appl 	NumberofFN 	0.89189189189189
scalar RSUExampleScenario.node[2].veinsmobility 	startTime 	4.9
scalar RSUExampleScenario.node[2].veinsmobility 	totalTime 	445.1
scalar RSUExampleScenario.node[2].veinsmobility 	stopTime 	450
scalar RSUExampleScenario.node[2].veinsmobility 	minSpeed 	0
scalar RSUExampleScenario.node[2].veinsmobility 	maxSpeed 	13.999616908785
scalar RSUExampleScenario.node[2].veinsmobility 	totalDistance 	3037.2299163462
scalar RSUExampleScenario.node[2].veinsmobility 	totalCO2Emission 	819.08878910179
scalar RSUExampleScenario.node[20].appl 	meanClusterNodes 	8
scalar RSUExampleScenario.node[20].appl 	meanClusterHeadUtility 	16.351115151108
scalar RSUExampleScenario.node[20].appl 	NumberofCH 	0.054054054054054
scalar RSUExampleScenario.node[20].appl 	NumberofON 	0.32432432432432
scalar RSUExampleScenario.node[20].appl 	NumberofFN 	0.62162162162162
scalar RSUExampleScenario.node[20].veinsmobility 	startTime 	48.3
scalar RSUExampleScenario.node[20].veinsmobility 	totalTime 	401.7
scalar RSUExampleScenario.node[20].veinsmobility 	stopTime 	450
scalar RSUExampleScenario.node[20].veinsmobility 	minSpeed 	0
scalar RSUExampleScenario.node[20].veinsmobility 	maxSpeed 	13.999999835675
scalar RSUExampleScenario.node[20].veinsmobility 	totalDistance 	2435.0375119323
scalar RSUExampleScenario.node[20].veinsmobility 	totalCO2Emission 	699.02562144691
scalar RSUExampleScenario.node[21].appl 	meanClusterNodes 	5
scalar RSUExampleScenario.node[21].appl 	meanClusterHeadUtility 	17.731998623381
scalar RSUExampleScenario.node[21].appl 	NumberofCH 	0.054054054054054
scalar RSUExampleScenario.node[21].appl 	NumberofON 	0.59459459459459
scalar RSUExampleScenario.node[21].appl 	NumberofFN 	0.35135135135135
scalar RSUExampleScenario.node[21].veinsmobility 	startTime 	50.7
scalar RSUExampleScenario.node[21].veinsmobility 	totalTime 	399.3
scalar RSUExampleScenario.node[21].veinsmobility 	stopTime 	450
scalar RSUExampleScenario.node[21].veinsmobility 	minSpeed 	0
scalar RSUExampleScenario.node[21].veinsmobility 	maxSpeed 	13.999886457347
scalar RSUExampleScenario.node[21].veinsmobility 	totalDistance 	2406.262962132
scalar RSUExampleScenario.node[21].veinsmobility 	totalCO2Emission 	693.78725212584
scalar RSUExampleScenario.node[22].appl 	meanClusterNodes 	0
scalar RSUExampleScenario.node[22].appl 	meanClusterHeadUtility 	0
scalar RSUExampleScenario.node[22].appl 	NumberofCH 	0.054054054054054
scalar RSUExampleScenario.node[22].appl 	NumberofON 	0
scalar RSUExampleScenario.node[22].appl 	NumberofFN 	0.94594594594595
scalar RSUExampleScenario.node[22].veinsmobility 	startTime 	53.1
scalar RSUExampleScenario.node[22].veinsmobility 	totalTime 	396.9
scalar RSUExampleScenario.node[22].veinsmobility 	stopTime 	450
scalar RSUExampleScenario.node[22].veinsmobility 	minSpeed 	0
scalar RSUExampleScenario.node[22].veinsmobility 	maxSpeed 	13.999890100856
scalar RSUExampleScenario.node[22].veinsmobility 	totalDistance 	2368.705326409
scalar RSUExampleScenario.node[22].veinsmobility 	totalCO2Emission 	689.07384747887
scalar RSUExampleScenario.node[23].appl 	meanClusterNodes 	4.5
scalar RSUExampleScenario.node[23].appl 	meanClusterHeadUtility 	16.38618058152
scalar RSUExampleScenario.node[23].appl 	NumberofCH 	0.054054054054054
scalar RSUExampleScenario.node[23].appl 	NumberofON 	0.62162162162162
scalar RSUExampleScenario.node[23].appl 	NumberofFN 	0.32432432432432
scalar RSUExampleScenario.node[23].veinsmobility 	startTime 	55.5
scalar RSUExampleScenario.node[23].veinsmobility 	totalTime 	394.5
scalar RSUExampleScenario.node[23].veinsmobility 	stopTime 	450
scalar RSUExampleScenario.node[23].veinsmobility 	minSpeed 	0
scalar RSUExampleScenario.node[23].veinsmobility 	maxSpeed 	13.999793626803
scalar RSUExampleScenario.node[23].veinsmobility 	totalDistance 	2340.4542683309
scalar RSUExampleScenario.node[23].veinsmobility 	totalCO2Emission 	684.85446829446
scalar RSUExampleScenario.node[24].appl 	meanClusterNodes 	6.25
scalar RSUExampleScenario.node[24].appl 	meanClusterHeadUtility 	9.3488298726068
scalar RSUExampleScenario.node[24].appl 	NumberofCH 	0.10810810810811
scalar RSUExampleScenario.node[24].appl 	NumberofON 	0.54054054054054
scalar RSUExampleScenario.node[24].appl 	NumberofFN 	0.35135135135135
scalar RSUExampleScenario.node[24].veinsmobility 	startTime 	57.9
scalar RSUExampleScenario.node[24].veinsmobility 	totalTime 	392.1
scalar RSUExampleScenario.node[24].veinsmobility 	stopTime 	450
scalar RSUExampleScenario.node[24].veinsmobility 	minSpeed 	0
scalar RSUExampleScenario.node[24].veinsmobility 	maxSpeed 	13.999873917957
scalar RSUExampleScenario.node[24].veinsmobility 	totalDistance 	2301.821160896
scalar RSUExampleScenario.node[24].veinsmobility 	totalCO2Emission 	675.88186365814
scalar RSUExampleScenario.node[25].appl 	meanClusterNodes 	0
scalar RSUExampleScenario.node[25].appl 	meanClusterHeadUtility 	0
scalar RSUExampleScenario.node[25].appl 	NumberofCH 	0
scalar RSUExampleScenario.node[25].appl 	NumberofON 	0.83783783783784
scalar RSUExampleScenario.node[25].appl 	NumberofFN 	0.16216216216216
scalar RSUExampleScenario.node[25].veinsmobility 	startTime 	60.3
scalar RSUExampleScenario.node[25].veinsmobility 	totalTime 	389.7
scalar RSUExampleScenario.node[25].veinsmobility 	stopTime 	450
scalar RSUExampleScenario.node[25].veinsmobility 	minSpeed 	0
scalar RSUExampleScenario.node[25].veinsmobility 	maxSpeed 	13.999960318522
scalar RSUExampleScenario.node[25].veinsmobility 	totalDistance 	2273.6371812426
scalar RSUExampleScenario.node[25].veinsmobility 	totalCO2Emission 	673.55691400551
scalar RSUExampleScenario.node[26].appl 	meanClusterNodes 	6.5
scalar RSUExampleScenario.node[26].appl 	meanClusterHeadUtility 	16.818303038122
scalar RSUExampleScenario.node[26].appl 	NumberofCH 	0.054054054054054
scalar RSUExampleScenario.node[26].appl 	NumberofON 	0.40540540540541
scalar RSUExampleScenario.node[26].appl 	NumberofFN 	0.54054054054054
scalar RSUExampleScenario.node[26].veinsmobility 	startTime 	62.7
scalar RSUExampleScenario.node[26].veinsmobility 	totalTime 	387.3
scalar RSUExampleScenario.node[26].veinsmobility 	stopTime 	450
scalar RSUExampleScenario.node[26].veinsmobility 	minSpeed 	0
scalar RSUExampleScenario.node[26].veinsmobility 	maxSpeed 	13.999956672774
scalar RSUExampleScenario.node[26].veinsmobility 	totalDistance 	2234.9336607393
scalar RSUExampleScenario.node[26].veinsmobility 	totalCO2Emission 	666.49882175998
scalar RSUExampleScenario.node[27].appl 	meanClusterNodes 	4.3333333333333
scalar RSUExampleScenario.node[27].appl 	meanClusterHeadUtility 	11.004940635019
scalar RSUExampleScenario.node[27].appl 	NumberofCH 	0.081081081081081
scalar RSUExampleScenario.node[27].appl 	NumberofON 	0.62162162162162
scalar RSUExampleScenario.node[27].appl 	NumberofFN 	0.2972972972973
scalar RSUExampleScenario.node[27].veinsmobility 	startTime 	65.1
scalar RSUExampleScenario.node[27].veinsmobility 	totalTime 	384.9
scalar RSUExampleScenario.node[27].veinsmobility 	stopTime 	450
scalar RSUExampleScenario.node[27].veinsmobility 	minSpeed 	0
scalar RSUExampleScenario.node[27].veinsmobility 	maxSpeed 	13.999975192936
scalar RSUExampleScenario.node[27].veinsmobility 	totalDistance 	2206.5870062852
scalar RSUExampleScenario.node[27].veinsmobility 	totalCO2Emission 	662.52015867359
scalar RSUExampleScenario.node[28].appl 	meanClusterNodes 	7.75
scalar RSUExampleScenario.node[28].appl 	meanClusterHeadUtility 	8.8080788108312
scalar RSUExampleScenario.node[28].appl 	NumberofCH 	0.10810810810811
scalar RSUExampleScenario.node[28].appl 	NumberofON 	0.59459459459459
scalar RSUExampleScenario.node[28].appl 	NumberofFN 	0.2972972972973
scalar RSUExampleScenario.node[28].veinsmobility 	startTime 	67.5
scalar RSUExampleScenario.node[28].veinsmobility 	totalTime 	382.5
scalar RSUExampleScenario.node[28].veinsmobility 	stopTime 	450
scalar RSUExampleScenario.node[28].veinsmobility 	minSpeed 	0
scalar RSUExampleScenario.node[28].veinsmobility 	maxSpeed 	13.99982766981
scalar RSUExampleScenario.node[28].veinsmobility 	totalDistance 	2168.248168663
scalar RSUExampleScenario.node[28].veinsmobility 	totalCO2Emission 	653.24336249961
scalar RSUExampleScenario.node[29].appl 	meanClusterNodes 	8.5
scalar RSUExampleScenario.node[29].appl 	meanClusterHeadUtility 	17.265219534051
scalar RSUExampleScenario.node[29].appl 	NumberofCH 	0.054054054054054
scalar RSUExampleScenario.node[29].appl 	NumberofON 	0.48648648648649
scalar RSUExampleScenario.node[29].appl 	NumberofFN 	0.45945945945946
scalar RSUExampleScenario.node[29].veinsmobility 	startTime 	69.9
scalar RSUExampleScenario.node[29].veinsmobility 	totalTime 	380.1
scalar RSUExampleScenario.node[29].veinsmobility 	stopTime 	450
scalar RSUExampleScenario.node[29].veinsmobility 	minSpeed 	0
scalar RSUExampleScenario.node[29].veinsmobility 	maxSpeed 	13.999779007186
scalar RSUExampleScenario.node[29].veinsmobility 	totalDistance 	2135.3776222605
scalar RSUExampleScenario.node[29].veinsmobility 	totalCO2Emission 	646.0884229428
scalar RSUExampleScenario.node[3].appl 	meanClusterNodes 	0
scalar RSUExampleScenario.node[3].appl 	meanClusterHeadUtility 	0
scalar RSUExampleScenario.node[3].appl 	NumberofCH 	0
scalar RSUExampleScenario.node[3].appl 	NumberofON 	0.35135135135135
scalar RSUExampleScenario.node[3].appl 	NumberofFN 	0.64864864864865
scalar RSUExampleScenario.node[3].veinsmobility 	startTime 	7.3
scalar RSUExampleScenario.node[3].veinsmobility 	totalTime 	442.7
scalar RSUExampleScenario.node[3].veinsmobility 	stopTime 	450
scalar RSUExampleScenario.node[3].veinsmobility 	minSpeed 	0
scalar RSUExampleScenario.node[3].veinsmobility 	maxSpeed 	13.999963567033
scalar RSUExampleScenario.node[3].veinsmobility 	totalDistance 	2997.8888207363
scalar RSUExampleScenario.node[3].veinsmobility 	totalCO2Emission 	811.60560946885
scalar RSUExampleScenario.node[30].appl 	meanClusterNodes 	8.5
scalar RSUExampleScenario.node[30].appl 	meanClusterHeadUtility 	17.20107094371
scalar RSUExampleScenario.node[30].appl 	NumberofCH 	0.054054054054054
scalar RSUExampleScenario.node[30].appl 	NumberofON 	0.62162162162162
scalar RSUExampleScenario.node[30].appl 	NumberofFN 	0.32432432432432
scalar RSUExampleScenario.node[30].veinsmobility 	startTime 	72.4
scalar RSUExampleScenario.node[30].veinsmobility 	totalTime 	377.6
scalar RSUExampleScenario.node[30].veinsmobility 	stopTime 	450
scalar RSUExampleScenario.node[30].veinsmobility 	minSpeed 	0
scalar RSUExampleScenario.node[30].veinsmobility 	maxSpeed 	13.999994816396
scalar RSUExampleScenario.node[30].veinsmobility 	totalDistance 	2100.6243826271
scalar RSUExampleScenario.node[30].veinsmobility 	totalCO2Emission 	643.50038375829
scalar RSUExampleScenario.node[31].appl 	meanClusterNodes 	5.75
scalar RSUExampleScenario.node[31].appl 	meanClusterHeadUtility 	8.8608735565589
scalar RSUExampleScenario.node[31].appl 	NumberofCH 	0.10810810810811
scalar RSUExampleScenario.node[31].appl 	NumberofON 	0.62162162162162
scalar RSUExampleScenario.node[31].appl 	NumberofFN 	0.27027027027027
scalar RSUExampleScenario.node[31].veinsmobility 	startTime 	74.8
scalar RSUExampleScenario.node[31].veinsmobility 	totalTime 	375.2
scalar RSUExampleScenario.node[31].veinsmobility 	stopTime 	450
scalar RSUExampleScenario.node[31].veinsmobility 	minSpeed 	0
scalar RSUExampleScenario.node[31].veinsmobility 	maxSpeed 	13.999998815765
scalar RSUExampleScenario.node[31].veinsmobility 	totalDistance 	2068.8210561087
scalar RSUExampleScenario.node[31].veinsmobility 	totalCO2Emission 	638.3796095769
scalar RSUExampleScenario.node[32].appl 	meanClusterNodes 	1
scalar RSUExampleScenario.node[32].appl 	meanClusterHeadUtility 	15.389586822949
scalar RSUExampleScenario.node[32].appl 	NumberofCH 	0.054054054054054
scalar RSUExampleScenario.node[32].appl 	NumberofON 	0.7027027027027
scalar RSUExampleScenario.node[32].appl 	NumberofFN 	0.24324324324324
scalar RSUExampleScenario.node[32].veinsmobility 	startTime 	77.2
scalar RSUExampleScenario.node[32].veinsmobility 	totalTime 	372.8
scalar RSUExampleScenario.node[32].veinsmobility 	stopTime 	450
scalar RSUExampleScenario.node[32].veinsmobility 	minSpeed 	0
scalar RSUExampleScenario.node[32].veinsmobility 	maxSpeed 	13.999962337336
scalar RSUExampleScenario.node[32].veinsmobility 	totalDistance 	2032.9014262509
scalar RSUExampleScenario.node[32].veinsmobility 	totalCO2Emission 	630.44305039428
scalar RSUExampleScenario.node[33].appl 	meanClusterNodes 	4
scalar RSUExampleScenario.node[33].appl 	meanClusterHeadUtility 	16.43622636642
scalar RSUExampleScenario.node[33].appl 	NumberofCH 	0.054054054054054
scalar RSUExampleScenario.node[33].appl 	NumberofON 	0.27027027027027
scalar RSUExampleScenario.node[33].appl 	NumberofFN 	0.67567567567568
scalar RSUExampleScenario.node[33].veinsmobility 	startTime 	79.6
scalar RSUExampleScenario.node[33].veinsmobility 	totalTime 	370.4
scalar RSUExampleScenario.node[33].veinsmobility 	stopTime 	450
scalar RSUExampleScenario.node[33].veinsmobility 	minSpeed 	0
scalar RSUExampleScenario.node[33].veinsmobility 	maxSpeed 	13.99990164228
scalar RSUExampleScenario.node[33].veinsmobility 	totalDistance 	1999.5379025518
scalar RSUExampleScenario.node[33].veinsmobility 	totalCO2Emission 	629.6073154232
scalar RSUExampleScenario.node[34].appl 	meanClusterNodes 	4.75
scalar RSUExampleScenario.node[34].appl 	meanClusterHeadUtility 	8.1057225112572
scalar RSUExampleScenario.node[34].appl 	NumberofCH 	0.10810810810811
scalar RSUExampleScenario.node[34].appl 	NumberofON 	0.72972972972973
scalar RSUExampleScenario.node[34].appl 	NumberofFN 	0.16216216216216
scalar RSUExampleScenario.node[34].veinsmobility 	startTime 	82
scalar RSUExampleScenario.node[34].veinsmobility 	totalTime 	368
scalar RSUExampleScenario.node[34].veinsmobility 	stopTime 	450
scalar RSUExampleScenario.node[34].veinsmobility 	minSpeed 	0
scalar RSUExampleScenario.node[34].veinsmobility 	maxSpeed 	13.999959944198
scalar RSUExampleScenario.node[34].veinsmobility 	totalDistance 	1966.9366674473
scalar RSUExampleScenario.node[34].veinsmobility 	totalCO2Emission 	623.06341348991
scalar RSUExampleScenario.node[35].appl 	meanClusterNodes 	5
scalar RSUExampleScenario.node[35].appl 	meanClusterHeadUtility 	15.912830307762
scalar RSUExampleScenario.node[35].appl 	NumberofCH 	0.054054054054054
scalar RSUExampleScenario.node[35].appl 	NumberofON 	0.62162162162162
scalar RSUExampleScenario.node[35].appl 	NumberofFN 	0.32432432432432
scalar RSUExampleScenario.node[35].veinsmobility 	startTime 	84.4
scalar RSUExampleScenario.node[35].veinsmobility 	totalTime 	365.6
scalar RSUExampleScenario.node[35].veinsmobility 	stopTime 	450
scalar RSUExampleScenario.node[35].veinsmobility 	minSpeed 	0
scalar RSUExampleScenario.node[35].veinsmobility 	maxSpeed 	13.999554715615
scalar RSUExampleScenario.node[35].veinsmobility 	totalDistance 	1932.9411287423
scalar RSUExampleScenario.node[35].veinsmobility 	totalCO2Emission 	615.36636931726
scalar RSUExampleScenario.node[36].appl 	meanClusterNodes 	11
scalar RSUExampleScenario.node[36].appl 	meanClusterHeadUtility 	17.061848376461
scalar RSUExampleScenario.node[36].appl 	NumberofCH 	0.054054054054054
scalar RSUExampleScenario.node[36].appl 	NumberofON 	0.43243243243243
scalar RSUExampleScenario.node[36].appl 	NumberofFN 	0.51351351351351
scalar RSUExampleScenario.node[36].veinsmobility 	startTime 	86.8
scalar RSUExampleScenario.node[36].veinsmobility 	totalTime 	363.2
scalar RSUExampleScenario.node[36].veinsmobility 	stopTime 	450
scalar RSUExampleScenario.node[36].veinsmobility 	minSpeed 	0
scalar RSUExampleScenario.node[36].veinsmobility 	maxSpeed 	13.99998038332
scalar RSUExampleScenario.node[36].veinsmobility 	totalDistance 	1898.167552943
scalar RSUExampleScenario.node[36].veinsmobility 	totalCO2Emission 	614.17245943782
scalar RSUExampleScenario.node[37].appl 	meanClusterNodes 	10.75
scalar RSUExampleScenario.node[37].appl 	meanClusterHeadUtility 	8.4142233761543
scalar RSUExampleScenario.node[37].appl 	NumberofCH 	0.10810810810811
scalar RSUExampleScenario.node[37].appl 	NumberofON 	0.32432432432432
scalar RSUExampleScenario.node[37].appl 	NumberofFN 	0.56756756756757
scalar RSUExampleScenario.node[37].veinsmobility 	startTime 	89.2
scalar RSUExampleScenario.node[37].veinsmobility 	totalTime 	360.8
scalar RSUExampleScenario.node[37].veinsmobility 	stopTime 	450
scalar RSUExampleScenario.node[37].veinsmobility 	minSpeed 	0
scalar RSUExampleScenario.node[37].veinsmobility 	maxSpeed 	13.999387888296
scalar RSUExampleScenario.node[37].veinsmobility 	totalDistance 	1866.4092445069
scalar RSUExampleScenario.node[37].veinsmobility 	totalCO2Emission 	604.41039349474
scalar RSUExampleScenario.node[38].appl 	meanClusterNodes 	0
scalar RSUExampleScenario.node[38].appl 	meanClusterHeadUtility 	0
scalar RSUExampleScenario.node[38].appl 	NumberofCH 	0
scalar RSUExampleScenario.node[38].appl 	NumberofON 	0.54054054054054
scalar RSUExampleScenario.node[38].appl 	NumberofFN 	0.45945945945946
scalar RSUExampleScenario.node[38].veinsmobility 	startTime 	91.6
scalar RSUExampleScenario.node[38].veinsmobility 	totalTime 	358.4
scalar RSUExampleScenario.node[38].veinsmobility 	stopTime 	450
scalar RSUExampleScenario.node[38].veinsmobility 	minSpeed 	0
scalar RSUExampleScenario.node[38].veinsmobility 	maxSpeed 	13.999922860197
scalar RSUExampleScenario.node[38].veinsmobility 	totalDistance 	1830.8250626602
scalar RSUExampleScenario.node[38].veinsmobility 	totalCO2Emission 	598.61957673932
scalar RSUExampleScenario.node[39].appl 	meanClusterNodes 	0
scalar RSUExampleScenario.node[39].appl 	meanClusterHeadUtility 	0
scalar RSUExampleScenario.node[39].appl 	NumberofCH 	0
scalar RSUExampleScenario.node[39].appl 	NumberofON 	0.45945945945946
scalar RSUExampleScenario.node[39].appl 	NumberofFN 	0.54054054054054
scalar RSUExampleScenario.node[39].veinsmobility 	startTime 	94
scalar RSUExampleScenario.node[39].veinsmobility 	totalTime 	356
scalar RSUExampleScenario.node[39].veinsmobility 	stopTime 	450
scalar RSUExampleScenario.node[39].veinsmobility 	minSpeed 	0
scalar RSUExampleScenario.node[39].veinsmobility 	maxSpeed 	13.999631360234
scalar RSUExampleScenario.node[39].veinsmobility 	totalDistance 	1797.5597719618
scalar RSUExampleScenario.node[39].veinsmobility 	totalCO2Emission 	596.21576868711
scalar RSUExampleScenario.node[4].appl 	meanClusterNodes 	8.5
scalar RSUExampleScenario.node[4].appl 	meanClusterHeadUtility 	17.993081720354
scalar RSUExampleScenario.node[4].appl 	NumberofCH 	0.054054054054054
scalar RSUExampleScenario.node[4].appl 	NumberofON 	0.21621621621622
scalar RSUExampleScenario.node[4].appl 	NumberofFN 	0.72972972972973
scalar RSUExampleScenario.node[4].veinsmobility 	startTime 	9.7
scalar RSUExampleScenario.node[4].veinsmobility 	totalTime 	440.3
scalar RSUExampleScenario.node[4].veinsmobility 	stopTime 	450
scalar RSUExampleScenario.node[4].veinsmobility 	minSpeed 	0
scalar RSUExampleScenario.node[4].veinsmobility 	maxSpeed 	13.999892650147
scalar RSUExampleScenario.node[4].veinsmobility 	totalDistance 	2948.408309324
scalar RSUExampleScenario.node[4].veinsmobility 	totalCO2Emission 	799.42018247626
scalar RSUExampleScenario.node[40].appl 	meanClusterNodes 	9.5
scalar RSUExampleScenario.node[40].appl 	meanClusterHeadUtility 	8.4108639762876
scalar RSUExampleScenario.node[40].appl 	NumberofCH 	0.10810810810811
scalar RSUExampleScenario.node[40].appl 	NumberofON 	0.43243243243243
scalar RSUExampleScenario.node[40].appl 	NumberofFN 	0.45945945945946
scalar RSUExampleScenario.node[40].veinsmobility 	startTime 	96.5
scalar RSUExampleScenario.node[40].veinsmobility 	totalTime 	353.5
scalar RSUExampleScenario.node[40].veinsmobility 	stopTime 	450
scalar RSUExampleScenario.node[40].veinsmobility 	minSpeed 	0
scalar RSUExampleScenario.node[40].veinsmobility 	maxSpeed 	13.999464363535
scalar RSUExampleScenario.node[40].veinsmobility 	totalDistance 	1763.9413490719
scalar RSUExampleScenario.node[40].veinsmobility 	totalCO2Emission 	584.64040231126
scalar RSUExampleScenario.node[41].appl 	meanClusterNodes 	9.5
scalar RSUExampleScenario.node[41].appl 	meanClusterHeadUtility 	15.942591893929
scalar RSUExampleScenario.node[41].appl 	NumberofCH 	0.054054054054054
scalar RSUExampleScenario.node[41].appl 	NumberofON 	0.56756756756757
scalar RSUExampleScenario.node[41].appl 	NumberofFN 	0.37837837837838
scalar RSUExampleScenario.node[41].veinsmobility 	startTime 	98.9
scalar RSUExampleScenario.node[41].veinsmobility 	totalTime 	351.1
scalar RSUExampleScenario.node[41].veinsmobility 	stopTime 	450
scalar RSUExampleScenario.node[41].veinsmobility 	minSpeed 	0
scalar RSUExampleScenario.node[41].veinsmobility 	maxSpeed 	13.999936985569
scalar RSUExampleScenario.node[41].veinsmobility 	totalDistance 	1727.8976643925
scalar RSUExampleScenario.node[41].veinsmobility 	totalCO2Emission 	580.53106532792
scalar RSUExampleScenario.node[42].appl 	meanClusterNodes 	8.5
scalar RSUExampleScenario.node[42].appl 	meanClusterHeadUtility 	8.6949256837335
scalar RSUExampleScenario.node[42].appl 	NumberofCH 	0.10810810810811
scalar RSUExampleScenario.node[42].appl 	NumberofON 	0.2972972972973
scalar RSUExampleScenario.node[42].appl 	NumberofFN 	0.59459459459459
scalar RSUExampleScenario.node[42].veinsmobility 	startTime 	101.3
scalar RSUExampleScenario.node[42].veinsmobility 	totalTime 	348.7
scalar RSUExampleScenario.node[42].veinsmobility 	stopTime 	450
scalar RSUExampleScenario.node[42].veinsmobility 	minSpeed 	0
scalar RSUExampleScenario.node[42].veinsmobility 	maxSpeed 	13.999996847105
scalar RSUExampleScenario.node[42].veinsmobility 	totalDistance 	1695.3033266282
scalar RSUExampleScenario.node[42].veinsmobility 	totalCO2Emission 	577.14321477117
scalar RSUExampleScenario.node[43].appl 	meanClusterNodes 	11.5
scalar RSUExampleScenario.node[43].appl 	meanClusterHeadUtility 	16.351388599284
scalar RSUExampleScenario.node[43].appl 	NumberofCH 	0.054054054054054
scalar RSUExampleScenario.node[43].appl 	NumberofON 	0.51351351351351
scalar RSUExampleScenario.node[43].appl 	NumberofFN 	0.43243243243243
scalar RSUExampleScenario.node[43].veinsmobility 	startTime 	103.7
scalar RSUExampleScenario.node[43].veinsmobility 	totalTime 	346.3
scalar RSUExampleScenario.node[43].veinsmobility 	stopTime 	450
scalar RSUExampleScenario.node[43].veinsmobility 	minSpeed 	0
scalar RSUExampleScenario.node[43].veinsmobility 	maxSpeed 	13.999963140527
scalar RSUExampleScenario.node[43].veinsmobility 	totalDistance 	1661.1010724315
scalar RSUExampleScenario.node[43].veinsmobility 	totalCO2Emission 	570.20224874054
scalar RSUExampleScenario.node[44].appl 	meanClusterNodes 	5.5
scalar RSUExampleScenario.node[44].appl 	meanClusterHeadUtility 	8.4243163866893
scalar RSUExampleScenario.node[44].appl 	NumberofCH 	0.10810810810811
scalar RSUExampleScenario.node[44].appl 	NumberofON 	0.56756756756757
scalar RSUExampleScenario.node[44].appl 	NumberofFN 	0.32432432432432
scalar RSUExampleScenario.node[44].veinsmobility 	startTime 	106.1
scalar RSUExampleScenario.node[44].veinsmobility 	totalTime 	343.9
scalar RSUExampleScenario.node[44].veinsmobility 	stopTime 	450
scalar RSUExampleScenario.node[44].veinsmobility 	minSpeed 	0
scalar RSUExampleScenario.node[44].veinsmobility 	maxSpeed 	13.999856695717
scalar RSUExampleScenario.node[44].veinsmobility 	totalDistance 	1627.4688732961
scalar RSUExampleScenario.node[44].veinsmobility 	totalCO2Emission 	564.78170258942
scalar RSUExampleScenario.node[45].appl 	meanClusterNodes 	0
scalar RSUExampleScenario.node[45].appl 	meanClusterHeadUtility 	0
scalar RSUExampleScenario.node[45].appl 	NumberofCH 	0
scalar RSUExampleScenario.node[45].appl 	NumberofON 	0.7027027027027
scalar RSUExampleScenario.node[45].appl 	NumberofFN 	0.2972972972973
scalar RSUExampleScenario.node[45].veinsmobility 	startTime 	108.5
scalar RSUExampleScenario.node[45].veinsmobility 	totalTime 	341.5
scalar RSUExampleScenario.node[45].veinsmobility 	stopTime 	450
scalar RSUExampleScenario.node[45].veinsmobility 	minSpeed 	0
scalar RSUExampleScenario.node[45].veinsmobility 	maxSpeed 	13.999804972273
scalar RSUExampleScenario.node[45].veinsmobility 	totalDistance 	1595.2602100279
scalar RSUExampleScenario.node[45].veinsmobility 	totalCO2Emission 	558.64299471512
scalar RSUExampleScenario.node[46].appl 	meanClusterNodes 	6
scalar RSUExampleScenario.node[46].appl 	meanClusterHeadUtility 	8.1369560858227
scalar RSUExampleScenario.node[46].appl 	NumberofCH 	0.10810810810811
scalar RSUExampleScenario.node[46].appl 	NumberofON 	0.64864864864865
scalar RSUExampleScenario.node[46].appl 	NumberofFN 	0.24324324324324
scalar RSUExampleScenario.node[46].veinsmobility 	startTime 	110.9
scalar RSUExampleScenario.node[46].veinsmobility 	totalTime 	339.1
scalar RSUExampleScenario.node[46].veinsmobility 	stopTime 	450
scalar RSUExampleScenario.node[46].veinsmobility 	minSpeed 	0
scalar RSUExampleScenario.node[46].veinsmobility 	maxSpeed 	13.999786079936
scalar RSUExampleScenario.node[46].veinsmobility 	totalDistance 	1562.2711194489
scalar RSUExampleScenario.node[46].veinsmobility 	totalCO2Emission 	554.97121348169
scalar RSUExampleScenario.node[47].appl 	meanClusterNodes 	8
scalar RSUExampleScenario.node[47].appl 	meanClusterHeadUtility 	17.304851562008
scalar RSUExampleScenario.node[47].appl 	NumberofCH 	0.054054054054054
scalar RSUExampleScenario.node[47].appl 	NumberofON 	0.45945945945946
scalar RSUExampleScenario.node[47].appl 	NumberofFN 	0.48648648648649
scalar RSUExampleScenario.node[47].veinsmobility 	startTime 	113.3
scalar RSUExampleScenario.node[47].veinsmobility 	totalTime 	336.7
scalar RSUExampleScenario.node[47].veinsmobility 	stopTime 	450
scalar RSUExampleScenario.node[47].veinsmobility 	minSpeed 	0
scalar RSUExampleScenario.node[47].veinsmobility 	maxSpeed 	13.999891171828
scalar RSUExampleScenario.node[47].veinsmobility 	totalDistance 	1528.7175942789
scalar RSUExampleScenario.node[47].veinsmobility 	totalCO2Emission 	547.93939295255
scalar RSUExampleScenario.node[48].appl 	meanClusterNodes 	3.5
scalar RSUExampleScenario.node[48].appl 	meanClusterHeadUtility 	8.1009351466477
scalar RSUExampleScenario.node[48].appl 	NumberofCH 	0.10810810810811
scalar RSUExampleScenario.node[48].appl 	NumberofON 	0.67567567567568
scalar RSUExampleScenario.node[48].appl 	NumberofFN 	0.21621621621622
scalar RSUExampleScenario.node[48].veinsmobility 	startTime 	115.7
scalar RSUExampleScenario.node[48].veinsmobility 	totalTime 	334.3
scalar RSUExampleScenario.node[48].veinsmobility 	stopTime 	450
scalar RSUExampleScenario.node[48].veinsmobility 	minSpeed 	0
scalar RSUExampleScenario.node[48].veinsmobility 	maxSpeed 	13.999338199708
scalar RSUExampleScenario.node[48].veinsmobility 	totalDistance 	1495.8525723025
scalar RSUExampleScenario.node[48].veinsmobility 	totalCO2Emission 	541.38927391014
scalar RSUExampleScenario.node[49].appl 	meanClusterNodes 	0
scalar RSUExampleScenario.node[49].appl 	meanClusterHeadUtility 	0
scalar RSUExampleScenario.node[49].appl 	NumberofCH 	0.054054054054054
scalar RSUExampleScenario.node[49].appl 	NumberofON 	0.7027027027027
scalar RSUExampleScenario.node[49].appl 	NumberofFN 	0.24324324324324
scalar RSUExampleScenario.node[49].veinsmobility 	startTime 	118.1
scalar RSUExampleScenario.node[49].veinsmobility 	totalTime 	331.9
scalar RSUExampleScenario.node[49].veinsmobility 	stopTime 	450
scalar RSUExampleScenario.node[49].veinsmobility 	minSpeed 	0
scalar RSUExampleScenario.node[49].veinsmobility 	maxSpeed 	13.999716072178
scalar RSUExampleScenario.node[49].veinsmobility 	totalDistance 	1461.8112440025
scalar RSUExampleScenario.node[49].veinsmobility 	totalCO2Emission 	537.01926347932
scalar RSUExampleScenario.node[5].appl 	meanClusterNodes 	6.5
scalar RSUExampleScenario.node[5].appl 	meanClusterHeadUtility 	22.595115539297
scalar RSUExampleScenario.node[5].appl 	NumberofCH 	0.054054054054054
scalar RSUExampleScenario.node[5].appl 	NumberofON 	0.27027027027027
scalar RSUExampleScenario.node[5].appl 	NumberofFN 	0.67567567567568
scalar RSUExampleScenario.node[5].veinsmobility 	startTime 	12.1
scalar RSUExampleScenario.node[5].veinsmobility 	totalTime 	437.9
scalar RSUExampleScenario.node[5].veinsmobility 	stopTime 	450
scalar RSUExampleScenario.node[5].veinsmobility 	minSpeed 	0
scalar RSUExampleScenario.node[5].veinsmobility 	maxSpeed 	13.999820902676
scalar RSUExampleScenario.node[5].veinsmobility 	totalDistance 	2918.8733682803
scalar RSUExampleScenario.node[5].veinsmobility 	totalCO2Emission 	785.85641212451
scalar RSUExampleScenario.node[50].appl 	meanClusterNodes 	6.3333333333333
scalar RSUExampleScenario.node[50].appl 	meanClusterHeadUtility 	11.362972866656
scalar RSUExampleScenario.node[50].appl 	NumberofCH 	0.081081081081081
scalar RSUExampleScenario.node[50].appl 	NumberofON 	0.64864864864865
scalar RSUExampleScenario.node[50].appl 	NumberofFN 	0.27027027027027
scalar RSUExampleScenario.node[50].veinsmobility 	startTime 	120.6
scalar RSUExampleScenario.node[50].veinsmobility 	totalTime 	329.4
scalar RSUExampleScenario.node[50].veinsmobility 	stopTime 	450
scalar RSUExampleScenario.node[50].veinsmobility 	minSpeed 	0
scalar RSUExampleScenario.node[50].veinsmobility 	maxSpeed 	13.99982781434
scalar RSUExampleScenario.node[50].veinsmobility 	totalDistance 	1428.420163022
scalar RSUExampleScenario.node[50].veinsmobility 	totalCO2Emission 	531.29156112479
scalar RSUExampleScenario.node[51].appl 	meanClusterNodes 	6
scalar RSUExampleScenario.node[51].appl 	meanClusterHeadUtility 	19.422559672585
scalar RSUExampleScenario.node[51].appl 	NumberofCH 	0.054054054054054
scalar RSUExampleScenario.node[51].appl 	NumberofON 	0.67567567567568
scalar RSUExampleScenario.node[51].appl 	NumberofFN 	0.27027027027027
scalar RSUExampleScenario.node[51].veinsmobility 	startTime 	123
scalar RSUExampleScenario.node[51].veinsmobility 	totalTime 	327
scalar RSUExampleScenario.node[51].veinsmobility 	stopTime 	450
scalar RSUExampleScenario.node[51].veinsmobility 	minSpeed 	0
scalar RSUExampleScenario.node[51].veinsmobility 	maxSpeed 	13.999935343259
scalar RSUExampleScenario.node[51].veinsmobility 	totalDistance 	1394.3632009479
scalar RSUExampleScenario.node[51].veinsmobility 	totalCO2Emission 	525.30352294833
scalar RSUExampleScenario.node[52].appl 	meanClusterNodes 	1.5
scalar RSUExampleScenario.node[52].appl 	meanClusterHeadUtility 	15.540562773937
scalar RSUExampleScenario.node[52].appl 	NumberofCH 	0.054054054054054
scalar RSUExampleScenario.node[52].appl 	NumberofON 	0.7027027027027
scalar RSUExampleScenario.node[52].appl 	NumberofFN 	0.24324324324324
scalar RSUExampleScenario.node[52].veinsmobility 	startTime 	125.4
scalar RSUExampleScenario.node[52].veinsmobility 	totalTime 	324.6
scalar RSUExampleScenario.node[52].veinsmobility 	stopTime 	450
scalar RSUExampleScenario.node[52].veinsmobility 	minSpeed 	0
scalar RSUExampleScenario.node[52].veinsmobility 	maxSpeed 	13.999515956584
scalar RSUExampleScenario.node[52].veinsmobility 	totalDistance 	1358.2075453587
scalar RSUExampleScenario.node[52].veinsmobility 	totalCO2Emission 	518.56425813897
scalar RSUExampleScenario.node[53].appl 	meanClusterNodes 	8.25
scalar RSUExampleScenario.node[53].appl 	meanClusterHeadUtility 	8.4353369208975
scalar RSUExampleScenario.node[53].appl 	NumberofCH 	0.10810810810811
scalar RSUExampleScenario.node[53].appl 	NumberofON 	0.48648648648649
scalar RSUExampleScenario.node[53].appl 	NumberofFN 	0.40540540540541
scalar RSUExampleScenario.node[53].veinsmobility 	startTime 	127.8
scalar RSUExampleScenario.node[53].veinsmobility 	totalTime 	322.2
scalar RSUExampleScenario.node[53].veinsmobility 	stopTime 	450
scalar RSUExampleScenario.node[53].veinsmobility 	minSpeed 	0
scalar RSUExampleScenario.node[53].veinsmobility 	maxSpeed 	13.999928126766
scalar RSUExampleScenario.node[53].veinsmobility 	totalDistance 	1326.4692883094
scalar RSUExampleScenario.node[53].veinsmobility 	totalCO2Emission 	512.20947944006
scalar RSUExampleScenario.node[54].appl 	meanClusterNodes 	4
scalar RSUExampleScenario.node[54].appl 	meanClusterHeadUtility 	8.5938347938419
scalar RSUExampleScenario.node[54].appl 	NumberofCH 	0.10810810810811
scalar RSUExampleScenario.node[54].appl 	NumberofON 	0.72972972972973
scalar RSUExampleScenario.node[54].appl 	NumberofFN 	0.16216216216216
scalar RSUExampleScenario.node[54].veinsmobility 	startTime 	130.2
scalar RSUExampleScenario.node[54].veinsmobility 	totalTime 	319.8
scalar RSUExampleScenario.node[54].veinsmobility 	stopTime 	450
scalar RSUExampleScenario.node[54].veinsmobility 	minSpeed 	0
scalar RSUExampleScenario.node[54].veinsmobility 	maxSpeed 	13.999839535072
scalar RSUExampleScenario.node[54].veinsmobility 	totalDistance 	1292.9046248887
scalar RSUExampleScenario.node[54].veinsmobility 	totalCO2Emission 	507.2648698287
scalar RSUExampleScenario.node[55].appl 	meanClusterNodes 	7.5
scalar RSUExampleScenario.node[55].appl 	meanClusterHeadUtility 	18.738108852442
scalar RSUExampleScenario.node[55].appl 	NumberofCH 	0.054054054054054
scalar RSUExampleScenario.node[55].appl 	NumberofON 	0.54054054054054
scalar RSUExampleScenario.node[55].appl 	NumberofFN 	0.40540540540541
scalar RSUExampleScenario.node[55].veinsmobility 	startTime 	132.6
scalar RSUExampleScenario.node[55].veinsmobility 	totalTime 	317.4
scalar RSUExampleScenario.node[55].veinsmobility 	stopTime 	450
scalar RSUExampleScenario.node[55].veinsmobility 	minSpeed 	0
scalar RSUExampleScenario.node[55].veinsmobility 	maxSpeed 	13.999957591649
scalar RSUExampleScenario.node[55].veinsmobility 	totalDistance 	1259.2688582296
scalar RSUExampleScenario.node[55].veinsmobility 	totalCO2Emission 	503.13047809958
scalar RSUExampleScenario.node[56].appl 	meanClusterNodes 	1
scalar RSUExampleScenario.node[56].appl 	meanClusterHeadUtility 	17.850924607645
scalar RSUExampleScenario.node[56].appl 	NumberofCH 	0.054054054054054
scalar RSUExampleScenario.node[56].appl 	NumberofON 	0.64864864864865
scalar RSUExampleScenario.node[56].appl 	NumberofFN 	0.2972972972973
scalar RSUExampleScenario.node[56].veinsmobility 	startTime 	135
scalar RSUExampleScenario.node[56].veinsmobility 	totalTime 	315
scalar RSUExampleScenario.node[56].veinsmobility 	stopTime 	450
scalar RSUExampleScenario.node[56].veinsmobility 	minSpeed 	0
scalar RSUExampleScenario.node[56].veinsmobility 	maxSpeed 	13.999703794273
scalar RSUExampleScenario.node[56].veinsmobility 	totalDistance 	1225.194210897
scalar RSUExampleScenario.node[56].veinsmobility 	totalCO2Emission 	496.9162391722
scalar RSUExampleScenario.node[57].appl 	meanClusterNodes 	3
scalar RSUExampleScenario.node[57].appl 	meanClusterHeadUtility 	16.256005771052
scalar RSUExampleScenario.node[57].appl 	NumberofCH 	0.054054054054054
scalar RSUExampleScenario.node[57].appl 	NumberofON 	0.67567567567568
scalar RSUExampleScenario.node[57].appl 	NumberofFN 	0.27027027027027
scalar RSUExampleScenario.node[57].veinsmobility 	startTime 	137.4
scalar RSUExampleScenario.node[57].veinsmobility 	totalTime 	312.6
scalar RSUExampleScenario.node[57].veinsmobility 	stopTime 	450
scalar RSUExampleScenario.node[57].veinsmobility 	minSpeed 	0
scalar RSUExampleScenario.node[57].veinsmobility 	maxSpeed 	13.999771376203
scalar RSUExampleScenario.node[57].veinsmobility 	totalDistance 	1192.6116062671
scalar RSUExampleScenario.node[57].veinsmobility 	totalCO2Emission 	491.53465485466
scalar RSUExampleScenario.node[58].appl 	meanClusterNodes 	3.75
scalar RSUExampleScenario.node[58].appl 	meanClusterHeadUtility 	8.3362390019483
scalar RSUExampleScenario.node[58].appl 	NumberofCH 	0.10810810810811
scalar RSUExampleScenario.node[58].appl 	NumberofON 	0.67567567567568
scalar RSUExampleScenario.node[58].appl 	NumberofFN 	0.21621621621622
scalar RSUExampleScenario.node[58].veinsmobility 	startTime 	139.8
scalar RSUExampleScenario.node[58].veinsmobility 	totalTime 	310.2
scalar RSUExampleScenario.node[58].veinsmobility 	stopTime 	450
scalar RSUExampleScenario.node[58].veinsmobility 	minSpeed 	0
scalar RSUExampleScenario.node[58].veinsmobility 	maxSpeed 	13.999891382584
scalar RSUExampleScenario.node[58].veinsmobility 	totalDistance 	1158.5677227658
scalar RSUExampleScenario.node[58].veinsmobility 	totalCO2Emission 	483.44220993462
scalar RSUExampleScenario.node[59].appl 	meanClusterNodes 	6
scalar RSUExampleScenario.node[59].appl 	meanClusterHeadUtility 	17.237327782455
scalar RSUExampleScenario.node[59].appl 	NumberofCH 	0.054054054054054
scalar RSUExampleScenario.node[59].appl 	NumberofON 	0.35135135135135
scalar RSUExampleScenario.node[59].appl 	NumberofFN 	0.59459459459459
scalar RSUExampleScenario.node[59].veinsmobility 	startTime 	142.2
scalar RSUExampleScenario.node[59].veinsmobility 	totalTime 	307.8
scalar RSUExampleScenario.node[59].veinsmobility 	stopTime 	450
scalar RSUExampleScenario.node[59].veinsmobility 	minSpeed 	0
scalar RSUExampleScenario.node[59].veinsmobility 	maxSpeed 	13.999890182912
scalar RSUExampleScenario.node[59].veinsmobility 	totalDistance 	1125.4450563442
scalar RSUExampleScenario.node[59].veinsmobility 	totalCO2Emission 	480.58831861906
scalar RSUExampleScenario.node[6].appl 	meanClusterNodes 	1
scalar RSUExampleScenario.node[6].appl 	meanClusterHeadUtility 	18.277975840586
scalar RSUExampleScenario.node[6].appl 	NumberofCH 	0.054054054054054
scalar RSUExampleScenario.node[6].appl 	NumberofON 	0.2972972972973
scalar RSUExampleScenario.node[6].appl 	NumberofFN 	0.64864864864865
scalar RSUExampleScenario.node[6].veinsmobility 	startTime 	14.5
scalar RSUExampleScenario.node[6].veinsmobility 	totalTime 	435.5
scalar RSUExampleScenario.node[6].veinsmobility 	stopTime 	450
scalar RSUExampleScenario.node[6].veinsmobility 	minSpeed 	0
scalar RSUExampleScenario.node[6].veinsmobility 	maxSpeed 	13.999836086882
scalar RSUExampleScenario.node[6].veinsmobility 	totalDistance 	2902.3427909306
scalar RSUExampleScenario.node[6].veinsmobility 	totalCO2Emission 	776.56844407368
scalar RSUExampleScenario.node[60].appl 	meanClusterNodes 	5
scalar RSUExampleScenario.node[60].appl 	meanClusterHeadUtility 	7.7558238432971
scalar RSUExampleScenario.node[60].appl 	NumberofCH 	0.10810810810811
scalar RSUExampleScenario.node[60].appl 	NumberofON 	0.21621621621622
scalar RSUExampleScenario.node[60].appl 	NumberofFN 	0.67567567567568
scalar RSUExampleScenario.node[60].veinsmobility 	startTime 	144.7
scalar RSUExampleScenario.node[60].veinsmobility 	totalTime 	305.3
scalar RSUExampleScenario.node[60].veinsmobility 	stopTime 	450
scalar RSUExampleScenario.node[60].veinsmobility 	minSpeed 	0
scalar RSUExampleScenario.node[60].veinsmobility 	maxSpeed 	13.999432939889
scalar RSUExampleScenario.node[60].veinsmobility 	totalDistance 	1091.0629031807
scalar RSUExampleScenario.node[60].veinsmobility 	totalCO2Emission 	473.81195815946
scalar RSUExampleScenario.node[61].appl 	meanClusterNodes 	4.5
scalar RSUExampleScenario.node[61].appl 	meanClusterHeadUtility 	7.7310271162158
scalar RSUExampleScenario.node[61].appl 	NumberofCH 	0.10810810810811
scalar RSUExampleScenario.node[61].appl 	NumberofON 	0.35135135135135
scalar RSUExampleScenario.node[61].appl 	NumberofFN 	0.54054054054054
scalar RSUExampleScenario.node[61].veinsmobility 	startTime 	147.1
scalar RSUExampleScenario.node[61].veinsmobility 	totalTime 	302.9
scalar RSUExampleScenario.node[61].veinsmobility 	stopTime 	450
scalar RSUExampleScenario.node[61].veinsmobility 	minSpeed 	0
scalar RSUExampleScenario.node[61].veinsmobility 	maxSpeed 	13.999997993354
scalar RSUExampleScenario.node[61].veinsmobility 	totalDistance 	1056.7875375927
scalar RSUExampleScenario.node[61].veinsmobility 	totalCO2Emission 	469.17079190852
scalar RSUExampleScenario.node[62].appl 	meanClusterNodes 	7
scalar RSUExampleScenario.node[62].appl 	meanClusterHeadUtility 	17.558697591653
scalar RSUExampleScenario.node[62].appl 	NumberofCH 	0.054054054054054
scalar RSUExampleScenario.node[62].appl 	NumberofON 	0.56756756756757
scalar RSUExampleScenario.node[62].appl 	NumberofFN 	0.37837837837838
scalar RSUExampleScenario.node[62].veinsmobility 	startTime 	149.5
scalar RSUExampleScenario.node[62].veinsmobility 	totalTime 	300.5
scalar RSUExampleScenario.node[62].veinsmobility 	stopTime 	450
scalar RSUExampleScenario.node[62].veinsmobility 	minSpeed 	0
scalar RSUExampleScenario.node[62].veinsmobility 	maxSpeed 	13.999131640121
scalar RSUExampleScenario.node[62].veinsmobility 	totalDistance 	1023.6815929699
scalar RSUExampleScenario.node[62].veinsmobility 	totalCO2Emission 	461.14818325001
scalar RSUExampleScenario.node[63].appl 	meanClusterNodes 	0
scalar RSUExampleScenario.node[63].appl 	meanClusterHeadUtility 	0
scalar RSUExampleScenario.node[63].appl 	NumberofCH 	0
scalar RSUExampleScenario.node[63].appl 	NumberofON 	0.45945945945946
scalar RSUExampleScenario.node[63].appl 	NumberofFN 	0.54054054054054
scalar RSUExampleScenario.node[63].veinsmobility 	startTime 	151.9
scalar RSUExampleScenario.node[63].veinsmobility 	totalTime 	298.1
scalar RSUExampleScenario.node[63].veinsmobility 	stopTime 	450
scalar RSUExampleScenario.node[63].veinsmobility 	minSpeed 	0
scalar RSUExampleScenario.node[63].veinsmobility 	maxSpeed 	13.999354461425
scalar RSUExampleScenario.node[63].veinsmobility 	totalDistance 	985.89224566955
scalar RSUExampleScenario.node[63].veinsmobility 	totalCO2Emission 	450.36221917606
scalar RSUExampleScenario.node[64].appl 	meanClusterNodes 	3
scalar RSUExampleScenario.node[64].appl 	meanClusterHeadUtility 	17.352846125418
scalar RSUExampleScenario.node[64].appl 	NumberofCH 	0.054054054054054
scalar RSUExampleScenario.node[64].appl 	NumberofON 	0.56756756756757
scalar RSUExampleScenario.node[64].appl 	NumberofFN 	0.37837837837838
scalar RSUExampleScenario.node[64].veinsmobility 	startTime 	154.3
scalar RSUExampleScenario.node[64].veinsmobility 	totalTime 	295.7
scalar RSUExampleScenario.node[64].veinsmobility 	stopTime 	450
scalar RSUExampleScenario.node[64].veinsmobility 	minSpeed 	0
scalar RSUExampleScenario.node[64].veinsmobility 	maxSpeed 	13.999973522385
scalar RSUExampleScenario.node[64].veinsmobility 	totalDistance 	953.70653160664
scalar RSUExampleScenario.node[64].veinsmobility 	totalCO2Emission 	435.64215724624
scalar RSUExampleScenario.node[65].appl 	meanClusterNodes 	0
scalar RSUExampleScenario.node[65].appl 	meanClusterHeadUtility 	0
scalar RSUExampleScenario.node[65].appl 	NumberofCH 	0.054054054054054
scalar RSUExampleScenario.node[65].appl 	NumberofON 	0
scalar RSUExampleScenario.node[65].appl 	NumberofFN 	0.94594594594595
scalar RSUExampleScenario.node[65].veinsmobility 	startTime 	156.7
scalar RSUExampleScenario.node[65].veinsmobility 	totalTime 	293.3
scalar RSUExampleScenario.node[65].veinsmobility 	stopTime 	450
scalar RSUExampleScenario.node[65].veinsmobility 	minSpeed 	0
scalar RSUExampleScenario.node[65].veinsmobility 	maxSpeed 	13.998877946474
scalar RSUExampleScenario.node[65].veinsmobility 	totalDistance 	940.38136719062
scalar RSUExampleScenario.node[65].veinsmobility 	totalCO2Emission 	428.17999291944
scalar RSUExampleScenario.node[66].appl 	meanClusterNodes 	3.5
scalar RSUExampleScenario.node[66].appl 	meanClusterHeadUtility 	9.5616870819417
scalar RSUExampleScenario.node[66].appl 	NumberofCH 	0.10810810810811
scalar RSUExampleScenario.node[66].appl 	NumberofON 	0.62162162162162
scalar RSUExampleScenario.node[66].appl 	NumberofFN 	0.27027027027027
scalar RSUExampleScenario.node[66].veinsmobility 	startTime 	159.1
scalar RSUExampleScenario.node[66].veinsmobility 	totalTime 	290.9
scalar RSUExampleScenario.node[66].veinsmobility 	stopTime 	450
scalar RSUExampleScenario.node[66].veinsmobility 	minSpeed 	0
scalar RSUExampleScenario.node[66].veinsmobility 	maxSpeed 	13.999812724357
scalar RSUExampleScenario.node[66].veinsmobility 	totalDistance 	927.98978333083
scalar RSUExampleScenario.node[66].veinsmobility 	totalCO2Emission 	422.9959383847
scalar RSUExampleScenario.node[67].appl 	meanClusterNodes 	0
scalar RSUExampleScenario.node[67].appl 	meanClusterHeadUtility 	0
scalar RSUExampleScenario.node[67].appl 	NumberofCH 	0.10810810810811
scalar RSUExampleScenario.node[67].appl 	NumberofON 	0
scalar RSUExampleScenario.node[67].appl 	NumberofFN 	0.89189189189189
scalar RSUExampleScenario.node[67].veinsmobility 	startTime 	161.5
scalar RSUExampleScenario.node[67].veinsmobility 	totalTime 	288.5
scalar RSUExampleScenario.node[67].veinsmobility 	stopTime 	450
scalar RSUExampleScenario.node[67].veinsmobility 	minSpeed 	0
scalar RSUExampleScenario.node[67].veinsmobility 	maxSpeed 	13.999043008352
scalar RSUExampleScenario.node[67].veinsmobility 	totalDistance 	912.783415723
scalar RSUExampleScenario.node[67].veinsmobility 	totalCO2Emission 	421.95287322802
scalar RSUExampleScenario.node[68].appl 	meanClusterNodes 	7
scalar RSUExampleScenario.node[68].appl 	meanClusterHeadUtility 	17.637179813848
scalar RSUExampleScenario.node[68].appl 	NumberofCH 	0.054054054054054
scalar RSUExampleScenario.node[68].appl 	NumberofON 	0.54054054054054
scalar RSUExampleScenario.node[68].appl 	NumberofFN 	0.40540540540541
scalar RSUExampleScenario.node[68].veinsmobility 	startTime 	163.9
scalar RSUExampleScenario.node[68].veinsmobility 	totalTime 	286.1
scalar RSUExampleScenario.node[68].veinsmobility 	stopTime 	450
scalar RSUExampleScenario.node[68].veinsmobility 	minSpeed 	0
scalar RSUExampleScenario.node[68].veinsmobility 	maxSpeed 	13.999526388505
scalar RSUExampleScenario.node[68].veinsmobility 	totalDistance 	894.207664839
scalar RSUExampleScenario.node[68].veinsmobility 	totalCO2Emission 	420.14123572121
scalar RSUExampleScenario.node[69].appl 	meanClusterNodes 	3
scalar RSUExampleScenario.node[69].appl 	meanClusterHeadUtility 	16.688423252258
scalar RSUExampleScenario.node[69].appl 	NumberofCH 	0.054054054054054
scalar RSUExampleScenario.node[69].appl 	NumberofON 	0.67567567567568
scalar RSUExampleScenario.node[69].appl 	NumberofFN 	0.27027027027027
scalar RSUExampleScenario.node[69].veinsmobility 	startTime 	166.3
scalar RSUExampleScenario.node[69].veinsmobility 	totalTime 	283.7
scalar RSUExampleScenario.node[69].veinsmobility 	stopTime 	450
scalar RSUExampleScenario.node[69].veinsmobility 	minSpeed 	0
scalar RSUExampleScenario.node[69].veinsmobility 	maxSpeed 	13.99985990715
scalar RSUExampleScenario.node[69].veinsmobility 	totalDistance 	857.18150698915
scalar RSUExampleScenario.node[69].veinsmobility 	totalCO2Emission 	413.98692360339
scalar RSUExampleScenario.node[7].appl 	meanClusterNodes 	2.5
scalar RSUExampleScenario.node[7].appl 	meanClusterHeadUtility 	9.6475129844852
scalar RSUExampleScenario.node[7].appl 	NumberofCH 	0.10810810810811
scalar RSUExampleScenario.node[7].appl 	NumberofON 	0.43243243243243
scalar RSUExampleScenario.node[7].appl 	NumberofFN 	0.45945945945946
scalar RSUExampleScenario.node[7].veinsmobility 	startTime 	16.9
scalar RSUExampleScenario.node[7].veinsmobility 	totalTime 	433.1
scalar RSUExampleScenario.node[7].veinsmobility 	stopTime 	450
scalar RSUExampleScenario.node[7].veinsmobility 	minSpeed 	0
scalar RSUExampleScenario.node[7].veinsmobility 	maxSpeed 	13.999941971917
scalar RSUExampleScenario.node[7].veinsmobility 	totalDistance 	2889.8995331842
scalar RSUExampleScenario.node[7].veinsmobility 	totalCO2Emission 	774.57182775867
scalar RSUExampleScenario.node[70].appl 	meanClusterNodes 	2
scalar RSUExampleScenario.node[70].appl 	meanClusterHeadUtility 	17.104693731277
scalar RSUExampleScenario.node[70].appl 	NumberofCH 	0.054054054054054
scalar RSUExampleScenario.node[70].appl 	NumberofON 	0.62162162162162
scalar RSUExampleScenario.node[70].appl 	NumberofFN 	0.32432432432432
scalar RSUExampleScenario.node[70].veinsmobility 	startTime 	168.8
scalar RSUExampleScenario.node[70].veinsmobility 	totalTime 	281.2
scalar RSUExampleScenario.node[70].veinsmobility 	stopTime 	450
scalar RSUExampleScenario.node[70].veinsmobility 	minSpeed 	0
scalar RSUExampleScenario.node[70].veinsmobility 	maxSpeed 	13.999959165221
scalar RSUExampleScenario.node[70].veinsmobility 	totalDistance 	823.54088387087
scalar RSUExampleScenario.node[70].veinsmobility 	totalCO2Emission 	406.65698625312
scalar RSUExampleScenario.node[71].appl 	meanClusterNodes 	8
scalar RSUExampleScenario.node[71].appl 	meanClusterHeadUtility 	8.3547821551692
scalar RSUExampleScenario.node[71].appl 	NumberofCH 	0.10810810810811
scalar RSUExampleScenario.node[71].appl 	NumberofON 	0.2972972972973
scalar RSUExampleScenario.node[71].appl 	NumberofFN 	0.59459459459459
scalar RSUExampleScenario.node[71].veinsmobility 	startTime 	171.2
scalar RSUExampleScenario.node[71].veinsmobility 	totalTime 	278.8
scalar RSUExampleScenario.node[71].veinsmobility 	stopTime 	450
scalar RSUExampleScenario.node[71].veinsmobility 	minSpeed 	0
scalar RSUExampleScenario.node[71].veinsmobility 	maxSpeed 	13.999585287701
scalar RSUExampleScenario.node[71].veinsmobility 	totalDistance 	791.83680676491
scalar RSUExampleScenario.node[71].veinsmobility 	totalCO2Emission 	401.90935354215
scalar RSUExampleScenario.node[72].appl 	meanClusterNodes 	0
scalar RSUExampleScenario.node[72].appl 	meanClusterHeadUtility 	0
scalar RSUExampleScenario.node[72].appl 	NumberofCH 	0.081081081081081
scalar RSUExampleScenario.node[72].appl 	NumberofON 	0
scalar RSUExampleScenario.node[72].appl 	NumberofFN 	0.91891891891892
scalar RSUExampleScenario.node[72].veinsmobility 	startTime 	173.6
scalar RSUExampleScenario.node[72].veinsmobility 	totalTime 	276.4
scalar RSUExampleScenario.node[72].veinsmobility 	stopTime 	450
scalar RSUExampleScenario.node[72].veinsmobility 	minSpeed 	0
scalar RSUExampleScenario.node[72].veinsmobility 	maxSpeed 	13.999838766507
scalar RSUExampleScenario.node[72].veinsmobility 	totalDistance 	758.88422592333
scalar RSUExampleScenario.node[72].veinsmobility 	totalCO2Emission 	398.8104642086
scalar RSUExampleScenario.node[73].appl 	meanClusterNodes 	0
scalar RSUExampleScenario.node[73].appl 	meanClusterHeadUtility 	0
scalar RSUExampleScenario.node[73].appl 	NumberofCH 	0.10810810810811
scalar RSUExampleScenario.node[73].appl 	NumberofON 	0
scalar RSUExampleScenario.node[73].appl 	NumberofFN 	0.89189189189189
scalar RSUExampleScenario.node[73].veinsmobility 	startTime 	176
scalar RSUExampleScenario.node[73].veinsmobility 	totalTime 	274
scalar RSUExampleScenario.node[73].veinsmobility 	stopTime 	450
scalar RSUExampleScenario.node[73].veinsmobility 	minSpeed 	0
scalar RSUExampleScenario.node[73].veinsmobility 	maxSpeed 	13.999649404674
scalar RSUExampleScenario.node[73].veinsmobility 	totalDistance 	725.86279447145
scalar RSUExampleScenario.node[73].veinsmobility 	totalCO2Emission 	388.60193453359
scalar RSUExampleScenario.node[74].appl 	meanClusterNodes 	4.6666666666667
scalar RSUExampleScenario.node[74].appl 	meanClusterHeadUtility 	12.524910349977
scalar RSUExampleScenario.node[74].appl 	NumberofCH 	0.081081081081081
scalar RSUExampleScenario.node[74].appl 	NumberofON 	0.35135135135135
scalar RSUExampleScenario.node[74].appl 	NumberofFN 	0.56756756756757
scalar RSUExampleScenario.node[74].veinsmobility 	startTime 	178.4
scalar RSUExampleScenario.node[74].veinsmobility 	totalTime 	271.6
scalar RSUExampleScenario.node[74].veinsmobility 	stopTime 	450
scalar RSUExampleScenario.node[74].veinsmobility 	minSpeed 	0
scalar RSUExampleScenario.node[74].veinsmobility 	maxSpeed 	13.999740515361
scalar RSUExampleScenario.node[74].veinsmobility 	totalDistance 	691.3047999911
scalar RSUExampleScenario.node[74].veinsmobility 	totalCO2Emission 	384.18115424283
scalar RSUExampleScenario.node[75].appl 	meanClusterNodes 	4
scalar RSUExampleScenario.node[75].appl 	meanClusterHeadUtility 	8.1612013937442
scalar RSUExampleScenario.node[75].appl 	NumberofCH 	0.10810810810811
scalar RSUExampleScenario.node[75].appl 	NumberofON 	0.45945945945946
scalar RSUExampleScenario.node[75].appl 	NumberofFN 	0.43243243243243
scalar RSUExampleScenario.node[75].veinsmobility 	startTime 	180.8
scalar RSUExampleScenario.node[75].veinsmobility 	totalTime 	269.2
scalar RSUExampleScenario.node[75].veinsmobility 	stopTime 	450
scalar RSUExampleScenario.node[75].veinsmobility 	minSpeed 	0
scalar RSUExampleScenario.node[75].veinsmobility 	maxSpeed 	13.999805539616
scalar RSUExampleScenario.node[75].veinsmobility 	totalDistance 	657.17267735044
scalar RSUExampleScenario.node[75].veinsmobility 	totalCO2Emission 	379.38431279063
scalar RSUExampleScenario.node[76].appl 	meanClusterNodes 	3.25
scalar RSUExampleScenario.node[76].appl 	meanClusterHeadUtility 	8.2991760843079
scalar RSUExampleScenario.node[76].appl 	NumberofCH 	0.10810810810811
scalar RSUExampleScenario.node[76].appl 	NumberofON 	0.62162162162162
scalar RSUExampleScenario.node[76].appl 	NumberofFN 	0.27027027027027
scalar RSUExampleScenario.node[76].veinsmobility 	startTime 	183.2
scalar RSUExampleScenario.node[76].veinsmobility 	totalTime 	266.8
scalar RSUExampleScenario.node[76].veinsmobility 	stopTime 	450
scalar RSUExampleScenario.node[76].veinsmobility 	minSpeed 	0
scalar RSUExampleScenario.node[76].veinsmobility 	maxSpeed 	13.999737724925
scalar RSUExampleScenario.node[76].veinsmobility 	totalDistance 	622.85689399807
scalar RSUExampleScenario.node[76].veinsmobility 	totalCO2Emission 	372.98129538824
scalar RSUExampleScenario.node[77].appl 	meanClusterNodes 	9.25
scalar RSUExampleScenario.node[77].appl 	meanClusterHeadUtility 	8.485889036901
scalar RSUExampleScenario.node[77].appl 	NumberofCH 	0.10810810810811
scalar RSUExampleScenario.node[77].appl 	NumberofON 	0.35135135135135
scalar RSUExampleScenario.node[77].appl 	NumberofFN 	0.54054054054054
scalar RSUExampleScenario.node[77].veinsmobility 	startTime 	185.6
scalar RSUExampleScenario.node[77].veinsmobility 	totalTime 	264.4
scalar RSUExampleScenario.node[77].veinsmobility 	stopTime 	450
scalar RSUExampleScenario.node[77].veinsmobility 	minSpeed 	0
scalar RSUExampleScenario.node[77].veinsmobility 	maxSpeed 	13.999796601541
scalar RSUExampleScenario.node[77].veinsmobility 	totalDistance 	589.66501483608
scalar RSUExampleScenario.node[77].veinsmobility 	totalCO2Emission 	369.34041192733
scalar RSUExampleScenario.node[78].appl 	meanClusterNodes 	12
scalar RSUExampleScenario.node[78].appl 	meanClusterHeadUtility 	17.180123908871
scalar RSUExampleScenario.node[78].appl 	NumberofCH 	0.054054054054054
scalar RSUExampleScenario.node[78].appl 	NumberofON 	0.32432432432432
scalar RSUExampleScenario.node[78].appl 	NumberofFN 	0.62162162162162
scalar RSUExampleScenario.node[78].veinsmobility 	startTime 	188
scalar RSUExampleScenario.node[78].veinsmobility 	totalTime 	262
scalar RSUExampleScenario.node[78].veinsmobility 	stopTime 	450
scalar RSUExampleScenario.node[78].veinsmobility 	minSpeed 	0
scalar RSUExampleScenario.node[78].veinsmobility 	maxSpeed 	13.998945544809
scalar RSUExampleScenario.node[78].veinsmobility 	totalDistance 	555.46723633985
scalar RSUExampleScenario.node[78].veinsmobility 	totalCO2Emission 	361.42806844824
scalar RSUExampleScenario.node[79].appl 	meanClusterNodes 	0
scalar RSUExampleScenario.node[79].appl 	meanClusterHeadUtility 	0
scalar RSUExampleScenario.node[79].appl 	NumberofCH 	0.081081081081081
scalar RSUExampleScenario.node[79].appl 	NumberofON 	0
scalar RSUExampleScenario.node[79].appl 	NumberofFN 	0.91891891891892
scalar RSUExampleScenario.node[79].veinsmobility 	startTime 	190.4
scalar RSUExampleScenario.node[79].veinsmobility 	totalTime 	259.6
scalar RSUExampleScenario.node[79].veinsmobility 	stopTime 	450
scalar RSUExampleScenario.node[79].veinsmobility 	minSpeed 	0
scalar RSUExampleScenario.node[79].veinsmobility 	maxSpeed 	13.999814200315
scalar RSUExampleScenario.node[79].veinsmobility 	totalDistance 	522.43242278037
scalar RSUExampleScenario.node[79].veinsmobility 	totalCO2Emission 	355.92303130278
scalar RSUExampleScenario.node[8].appl 	meanClusterNodes 	0
scalar RSUExampleScenario.node[8].appl 	meanClusterHeadUtility 	0
scalar RSUExampleScenario.node[8].appl 	NumberofCH 	0
scalar RSUExampleScenario.node[8].appl 	NumberofON 	0.10810810810811
scalar RSUExampleScenario.node[8].appl 	NumberofFN 	0.89189189189189
scalar RSUExampleScenario.node[8].veinsmobility 	startTime 	19.3
scalar RSUExampleScenario.node[8].veinsmobility 	totalTime 	430.7
scalar RSUExampleScenario.node[8].veinsmobility 	stopTime 	450
scalar RSUExampleScenario.node[8].veinsmobility 	minSpeed 	0
scalar RSUExampleScenario.node[8].veinsmobility 	maxSpeed 	13.999900445121
scalar RSUExampleScenario.node[8].veinsmobility 	totalDistance 	2860.6523520671
scalar RSUExampleScenario.node[8].veinsmobility 	totalCO2Emission 	770.7231643492
scalar RSUExampleScenario.node[80].appl 	meanClusterNodes 	7.5
scalar RSUExampleScenario.node[80].appl 	meanClusterHeadUtility 	18.20619089552
scalar RSUExampleScenario.node[80].appl 	NumberofCH 	0.054054054054054
scalar RSUExampleScenario.node[80].appl 	NumberofON 	0.59459459459459
scalar RSUExampleScenario.node[80].appl 	NumberofFN 	0.35135135135135
scalar RSUExampleScenario.node[80].veinsmobility 	startTime 	192.9
scalar RSUExampleScenario.node[80].veinsmobility 	totalTime 	257.1
scalar RSUExampleScenario.node[80].veinsmobility 	stopTime 	450
scalar RSUExampleScenario.node[80].veinsmobility 	minSpeed 	0
scalar RSUExampleScenario.node[80].veinsmobility 	maxSpeed 	13.999674755321
scalar RSUExampleScenario.node[80].veinsmobility 	totalDistance 	488.53776139001
scalar RSUExampleScenario.node[80].veinsmobility 	totalCO2Emission 	350.09818771224
scalar RSUExampleScenario.node[81].appl 	meanClusterNodes 	6
scalar RSUExampleScenario.node[81].appl 	meanClusterHeadUtility 	16.694954323376
scalar RSUExampleScenario.node[81].appl 	NumberofCH 	0.054054054054054
scalar RSUExampleScenario.node[81].appl 	NumberofON 	0.62162162162162
scalar RSUExampleScenario.node[81].appl 	NumberofFN 	0.32432432432432
scalar RSUExampleScenario.node[81].veinsmobility 	startTime 	195.3
scalar RSUExampleScenario.node[81].veinsmobility 	totalTime 	254.7
scalar RSUExampleScenario.node[81].veinsmobility 	stopTime 	450
scalar RSUExampleScenario.node[81].veinsmobility 	minSpeed 	0
scalar RSUExampleScenario.node[81].veinsmobility 	maxSpeed 	13.999030432338
scalar RSUExampleScenario.node[81].veinsmobility 	totalDistance 	455.5894995651
scalar RSUExampleScenario.node[81].veinsmobility 	totalCO2Emission 	345.71714831542
scalar RSUExampleScenario.node[82].appl 	meanClusterNodes 	5.6666666666667
scalar RSUExampleScenario.node[82].appl 	meanClusterHeadUtility 	11.658626746027
scalar RSUExampleScenario.node[82].appl 	NumberofCH 	0.081081081081081
scalar RSUExampleScenario.node[82].appl 	NumberofON 	0.64864864864865
scalar RSUExampleScenario.node[82].appl 	NumberofFN 	0.27027027027027
scalar RSUExampleScenario.node[82].veinsmobility 	startTime 	197.7
scalar RSUExampleScenario.node[82].veinsmobility 	totalTime 	252.3
scalar RSUExampleScenario.node[82].veinsmobility 	stopTime 	450
scalar RSUExampleScenario.node[82].veinsmobility 	minSpeed 	0
scalar RSUExampleScenario.node[82].veinsmobility 	maxSpeed 	13.998968550232
scalar RSUExampleScenario.node[82].veinsmobility 	totalDistance 	422.33517389726
scalar RSUExampleScenario.node[82].veinsmobility 	totalCO2Emission 	339.8188904066
scalar RSUExampleScenario.node[83].appl 	meanClusterNodes 	8.5
scalar RSUExampleScenario.node[83].appl 	meanClusterHeadUtility 	18.486883006811
scalar RSUExampleScenario.node[83].appl 	NumberofCH 	0.054054054054054
scalar RSUExampleScenario.node[83].appl 	NumberofON 	0.35135135135135
scalar RSUExampleScenario.node[83].appl 	NumberofFN 	0.59459459459459
scalar RSUExampleScenario.node[83].veinsmobility 	startTime 	200.1
scalar RSUExampleScenario.node[83].veinsmobility 	totalTime 	249.9
scalar RSUExampleScenario.node[83].veinsmobility 	stopTime 	450
scalar RSUExampleScenario.node[83].veinsmobility 	minSpeed 	0
scalar RSUExampleScenario.node[83].veinsmobility 	maxSpeed 	13.998661889702
scalar RSUExampleScenario.node[83].veinsmobility 	totalDistance 	388.79894834353
scalar RSUExampleScenario.node[83].veinsmobility 	totalCO2Emission 	333.52583906138
scalar RSUExampleScenario.node[84].appl 	meanClusterNodes 	4.25
scalar RSUExampleScenario.node[84].appl 	meanClusterHeadUtility 	8.4795985121125
scalar RSUExampleScenario.node[84].appl 	NumberofCH 	0.10810810810811
scalar RSUExampleScenario.node[84].appl 	NumberofON 	0.48648648648649
scalar RSUExampleScenario.node[84].appl 	NumberofFN 	0.40540540540541
scalar RSUExampleScenario.node[84].veinsmobility 	startTime 	202.5
scalar RSUExampleScenario.node[84].veinsmobility 	totalTime 	247.5
scalar RSUExampleScenario.node[84].veinsmobility 	stopTime 	450
scalar RSUExampleScenario.node[84].veinsmobility 	minSpeed 	0
scalar RSUExampleScenario.node[84].veinsmobility 	maxSpeed 	13.998639962454
scalar RSUExampleScenario.node[84].veinsmobility 	totalDistance 	356.80757596767
scalar RSUExampleScenario.node[84].veinsmobility 	totalCO2Emission 	328.81898974649
scalar RSUExampleScenario.node[85].appl 	meanClusterNodes 	0
scalar RSUExampleScenario.node[85].appl 	meanClusterHeadUtility 	0
scalar RSUExampleScenario.node[85].appl 	NumberofCH 	0
scalar RSUExampleScenario.node[85].appl 	NumberofON 	0.2972972972973
scalar RSUExampleScenario.node[85].appl 	NumberofFN 	0.7027027027027
scalar RSUExampleScenario.node[85].veinsmobility 	startTime 	204.9
scalar RSUExampleScenario.node[85].veinsmobility 	totalTime 	245.1
scalar RSUExampleScenario.node[85].veinsmobility 	stopTime 	450
scalar RSUExampleScenario.node[85].veinsmobility 	minSpeed 	0
scalar RSUExampleScenario.node[85].veinsmobility 	maxSpeed 	13.998051531059
scalar RSUExampleScenario.node[85].veinsmobility 	totalDistance 	321.74238747712
scalar RSUExampleScenario.node[85].veinsmobility 	totalCO2Emission 	323.38120926503
scalar RSUExampleScenario.node[86].appl 	meanClusterNodes 	0
scalar RSUExampleScenario.node[86].appl 	meanClusterHeadUtility 	0
scalar RSUExampleScenario.node[86].appl 	NumberofCH 	0.10810810810811
scalar RSUExampleScenario.node[86].appl 	NumberofON 	0.48648648648649
scalar RSUExampleScenario.node[86].appl 	NumberofFN 	0.40540540540541
scalar RSUExampleScenario.node[86].veinsmobility 	startTime 	207.3
scalar RSUExampleScenario.node[86].veinsmobility 	totalTime 	242.7
scalar RSUExampleScenario.node[86].veinsmobility 	stopTime 	450
scalar RSUExampleScenario.node[86].veinsmobility 	minSpeed 	0
scalar RSUExampleScenario.node[86].veinsmobility 	maxSpeed 	13.769571909709
scalar RSUExampleScenario.node[86].veinsmobility 	totalDistance 	288.32493689782
scalar RSUExampleScenario.node[86].veinsmobility 	totalCO2Emission 	315.60865618188
scalar RSUExampleScenario.node[87].appl 	meanClusterNodes 	0
scalar RSUExampleScenario.node[87].appl 	meanClusterHeadUtility 	0
scalar RSUExampleScenario.node[87].appl 	NumberofCH 	0
scalar RSUExampleScenario.node[87].appl 	NumberofON 	0.59459459459459
scalar RSUExampleScenario.node[87].appl 	NumberofFN 	0.40540540540541
scalar RSUExampleScenario.node[87].veinsmobility 	startTime 	209.7
scalar RSUExampleScenario.node[87].veinsmobility 	totalTime 	240.3
scalar RSUExampleScenario.node[87].veinsmobility 	stopTime 	450
scalar RSUExampleScenario.node[87].veinsmobility 	minSpeed 	0
scalar RSUExampleScenario.node[87].veinsmobility 	maxSpeed 	13.826227890374
scalar RSUExampleScenario.node[87].veinsmobility 	totalDistance 	248.88486909956
scalar RSUExampleScenario.node[87].veinsmobility 	totalCO2Emission 	298.52936830132
scalar RSUExampleScenario.node[88].appl 	meanClusterNodes 	7
scalar RSUExampleScenario.node[88].appl 	meanClusterHeadUtility 	18.908274628601
scalar RSUExampleScenario.node[88].appl 	NumberofCH 	0.054054054054054
scalar RSUExampleScenario.node[88].appl 	NumberofON 	0.62162162162162
scalar RSUExampleScenario.node[88].appl 	NumberofFN 	0.32432432432432
scalar RSUExampleScenario.node[88].veinsmobility 	startTime 	212.1
scalar RSUExampleScenario.node[88].veinsmobility 	totalTime 	237.9
scalar RSUExampleScenario.node[88].veinsmobility 	stopTime 	450
scalar RSUExampleScenario.node[88].veinsmobility 	minSpeed 	0
scalar RSUExampleScenario.node[88].veinsmobility 	maxSpeed 	13.787820867587
scalar RSUExampleScenario.node[88].veinsmobility 	totalDistance 	226.02462304103
scalar RSUExampleScenario.node[88].veinsmobility 	totalCO2Emission 	286.79306618542
scalar RSUExampleScenario.node[89].appl 	meanClusterNodes 	1.25
scalar RSUExampleScenario.node[89].appl 	meanClusterHeadUtility 	9.4078308734178
scalar RSUExampleScenario.node[89].appl 	NumberofCH 	0.10810810810811
scalar RSUExampleScenario.node[89].appl 	NumberofON 	0.32432432432432
scalar RSUExampleScenario.node[89].appl 	NumberofFN 	0.56756756756757
scalar RSUExampleScenario.node[89].veinsmobility 	startTime 	214.5
scalar RSUExampleScenario.node[89].veinsmobility 	totalTime 	235.5
scalar RSUExampleScenario.node[89].veinsmobility 	stopTime 	450
scalar RSUExampleScenario.node[89].veinsmobility 	minSpeed 	0
scalar RSUExampleScenario.node[89].veinsmobility 	maxSpeed 	13.880428482769
scalar RSUExampleScenario.node[89].veinsmobility 	totalDistance 	215.26440336797
scalar RSUExampleScenario.node[89].veinsmobility 	totalCO2Emission 	283.18062770908
scalar RSUExampleScenario.node[9].appl 	meanClusterNodes 	1.5
scalar RSUExampleScenario.node[9].appl 	meanClusterHeadUtility 	18.210047132258
scalar RSUExampleScenario.node[9].appl 	NumberofCH 	0.054054054054054
scalar RSUExampleScenario.node[9].appl 	NumberofON 	0.54054054054054
scalar RSUExampleScenario.node[9].appl 	NumberofFN 	0.40540540540541
scalar RSUExampleScenario.node[9].veinsmobility 	startTime 	21.7
scalar RSUExampleScenario.node[9].veinsmobility 	totalTime 	428.3
scalar RSUExampleScenario.node[9].veinsmobility 	stopTime 	450
scalar RSUExampleScenario.node[9].veinsmobility 	minSpeed 	0
scalar RSUExampleScenario.node[9].veinsmobility 	maxSpeed 	13.999997982276
scalar RSUExampleScenario.node[9].veinsmobility 	totalDistance 	2828.6195372018
scalar RSUExampleScenario.node[9].veinsmobility 	totalCO2Emission 	767.33364192464
scalar RSUExampleScenario.node[90].appl 	meanClusterNodes 	3
scalar RSUExampleScenario.node[90].appl 	meanClusterHeadUtility 	18.974278642638
scalar RSUExampleScenario.node[90].appl 	NumberofCH 	0.054054054054054
scalar RSUExampleScenario.node[90].appl 	NumberofON 	0.37837837837838
scalar RSUExampleScenario.node[90].appl 	NumberofFN 	0.56756756756757
scalar RSUExampleScenario.node[90].veinsmobility 	startTime 	217
scalar RSUExampleScenario.node[90].veinsmobility 	totalTime 	233
scalar RSUExampleScenario.node[90].veinsmobility 	stopTime 	450
scalar RSUExampleScenario.node[90].veinsmobility 	minSpeed 	0
scalar RSUExampleScenario.node[90].veinsmobility 	maxSpeed 	13.815794795169
scalar RSUExampleScenario.node[90].veinsmobility 	totalDistance 	201.91843751734
scalar RSUExampleScenario.node[90].veinsmobility 	totalCO2Emission 	280.13058208571
scalar RSUExampleScenario.node[91].appl 	meanClusterNodes 	0.25
scalar RSUExampleScenario.node[91].appl 	meanClusterHeadUtility 	7.678657286047
scalar RSUExampleScenario.node[91].appl 	NumberofCH 	0.10810810810811
scalar RSUExampleScenario.node[91].appl 	NumberofON 	0.40540540540541
scalar RSUExampleScenario.node[91].appl 	NumberofFN 	0.48648648648649
scalar RSUExampleScenario.node[91].veinsmobility 	startTime 	219.4
scalar RSUExampleScenario.node[91].veinsmobility 	totalTime 	230.6
scalar RSUExampleScenario.node[91].veinsmobility 	stopTime 	450
scalar RSUExampleScenario.node[91].veinsmobility 	minSpeed 	0
scalar RSUExampleScenario.node[91].veinsmobility 	maxSpeed 	13.806979342397
scalar RSUExampleScenario.node[91].veinsmobility 	totalDistance 	185.295084113
scalar RSUExampleScenario.node[91].veinsmobility 	totalCO2Emission 	277.63241309303
scalar RSUExampleScenario.node[92].appl 	meanClusterNodes 	3.5
scalar RSUExampleScenario.node[92].appl 	meanClusterHeadUtility 	9.6886204014795
scalar RSUExampleScenario.node[92].appl 	NumberofCH 	0.10810810810811
scalar RSUExampleScenario.node[92].appl 	NumberofON 	0.21621621621622
scalar RSUExampleScenario.node[92].appl 	NumberofFN 	0.67567567567568
scalar RSUExampleScenario.node[92].veinsmobility 	startTime 	221.8
scalar RSUExampleScenario.node[92].veinsmobility 	totalTime 	228.2
scalar RSUExampleScenario.node[92].veinsmobility 	stopTime 	450
scalar RSUExampleScenario.node[92].veinsmobility 	minSpeed 	0
scalar RSUExampleScenario.node[92].veinsmobility 	maxSpeed 	13.858899920637
scalar RSUExampleScenario.node[92].veinsmobility 	totalDistance 	150.29438696946
scalar RSUExampleScenario.node[92].veinsmobility 	totalCO2Emission 	263.91059308899
scalar RSUExampleScenario.node[93].appl 	meanClusterNodes 	1.5
scalar RSUExampleScenario.node[93].appl 	meanClusterHeadUtility 	8.9919826763299
scalar RSUExampleScenario.node[93].appl 	NumberofCH 	0.10810810810811
scalar RSUExampleScenario.node[93].appl 	NumberofON 	0.51351351351351
scalar RSUExampleScenario.node[93].appl 	NumberofFN 	0.37837837837838
scalar RSUExampleScenario.node[93].veinsmobility 	startTime 	224.2
scalar RSUExampleScenario.node[93].veinsmobility 	totalTime 	225.8
scalar RSUExampleScenario.node[93].veinsmobility 	stopTime 	450
scalar RSUExampleScenario.node[93].veinsmobility 	minSpeed 	0
scalar RSUExampleScenario.node[93].veinsmobility 	maxSpeed 	13.824731522681
scalar RSUExampleScenario.node[93].veinsmobility 	totalDistance 	123.67696754618
scalar RSUExampleScenario.node[93].veinsmobility 	totalCO2Emission 	251.77323552583
scalar RSUExampleScenario.node[94].appl 	meanClusterNodes 	1.5
scalar RSUExampleScenario.node[94].appl 	meanClusterHeadUtility 	15.476213465637
scalar RSUExampleScenario.node[94].appl 	NumberofCH 	0.054054054054054
scalar RSUExampleScenario.node[94].appl 	NumberofON 	0.48648648648649
scalar RSUExampleScenario.node[94].appl 	NumberofFN 	0.45945945945946
scalar RSUExampleScenario.node[94].veinsmobility 	startTime 	226.6
scalar RSUExampleScenario.node[94].veinsmobility 	totalTime 	223.4
scalar RSUExampleScenario.node[94].veinsmobility 	stopTime 	450
scalar RSUExampleScenario.node[94].veinsmobility 	minSpeed 	0
scalar RSUExampleScenario.node[94].veinsmobility 	maxSpeed 	13.835891020226
scalar RSUExampleScenario.node[94].veinsmobility 	totalDistance 	112.43977811571
scalar RSUExampleScenario.node[94].veinsmobility 	totalCO2Emission 	246.02263733915
scalar RSUExampleScenario.node[95].appl 	meanClusterNodes 	4.5
scalar RSUExampleScenario.node[95].appl 	meanClusterHeadUtility 	18.909167889656
scalar RSUExampleScenario.node[95].appl 	NumberofCH 	0.054054054054054
scalar RSUExampleScenario.node[95].appl 	NumberofON 	0.51351351351351
scalar RSUExampleScenario.node[95].appl 	NumberofFN 	0.43243243243243
scalar RSUExampleScenario.node[95].veinsmobility 	startTime 	229
scalar RSUExampleScenario.node[95].veinsmobility 	totalTime 	221
scalar RSUExampleScenario.node[95].veinsmobility 	stopTime 	450
scalar RSUExampleScenario.node[95].veinsmobility 	minSpeed 	0
scalar RSUExampleScenario.node[95].veinsmobility 	maxSpeed 	13.824013724505
scalar RSUExampleScenario.node[95].veinsmobility 	totalDistance 	99.126963879136
scalar RSUExampleScenario.node[95].veinsmobility 	totalCO2Emission 	242.5230765717
scalar RSUExampleScenario.node[96].appl 	meanClusterNodes 	7.5
scalar RSUExampleScenario.node[96].appl 	meanClusterHeadUtility 	19.087562163024
scalar RSUExampleScenario.node[96].appl 	NumberofCH 	0.054054054054054
scalar RSUExampleScenario.node[96].appl 	NumberofON 	0.45945945945946
scalar RSUExampleScenario.node[96].appl 	NumberofFN 	0.48648648648649
scalar RSUExampleScenario.node[96].veinsmobility 	startTime 	231.4
scalar RSUExampleScenario.node[96].veinsmobility 	totalTime 	218.6
scalar RSUExampleScenario.node[96].veinsmobility 	stopTime 	450
scalar RSUExampleScenario.node[96].veinsmobility 	minSpeed 	0
scalar RSUExampleScenario.node[96].veinsmobility 	maxSpeed 	13.84654910146
scalar RSUExampleScenario.node[96].veinsmobility 	totalDistance 	83.333959178153
scalar RSUExampleScenario.node[96].veinsmobility 	totalCO2Emission 	239.82312752267
scalar RSUExampleScenario.node[97].appl 	meanClusterNodes 	8
scalar RSUExampleScenario.node[97].appl 	meanClusterHeadUtility 	18.921375710688
scalar RSUExampleScenario.node[97].appl 	NumberofCH 	0.054054054054054
scalar RSUExampleScenario.node[97].appl 	NumberofON 	0.35135135135135
scalar RSUExampleScenario.node[97].appl 	NumberofFN 	0.59459459459459
scalar RSUExampleScenario.node[97].veinsmobility 	startTime 	233.8
scalar RSUExampleScenario.node[97].veinsmobility 	totalTime 	216.2
scalar RSUExampleScenario.node[97].veinsmobility 	stopTime 	450
scalar RSUExampleScenario.node[97].veinsmobility 	minSpeed 	0
scalar RSUExampleScenario.node[97].veinsmobility 	maxSpeed 	12.194550166659
scalar RSUExampleScenario.node[97].veinsmobility 	totalDistance 	55.069689303889
scalar RSUExampleScenario.node[97].veinsmobility 	totalCO2Emission 	231.4685738782
scalar RSUExampleScenario.node[98].appl 	meanClusterNodes 	5
scalar RSUExampleScenario.node[98].appl 	meanClusterHeadUtility 	7.8454216148065
scalar RSUExampleScenario.node[98].appl 	NumberofCH 	0.10810810810811
scalar RSUExampleScenario.node[98].appl 	NumberofON 	0.54054054054054
scalar RSUExampleScenario.node[98].appl 	NumberofFN 	0.35135135135135
scalar RSUExampleScenario.node[98].veinsmobility 	startTime 	236.2
scalar RSUExampleScenario.node[98].veinsmobility 	totalTime 	213.8
scalar RSUExampleScenario.node[98].veinsmobility 	stopTime 	450
scalar RSUExampleScenario.node[98].veinsmobility 	minSpeed 	0
scalar RSUExampleScenario.node[98].veinsmobility 	maxSpeed 	7.4921340157701
scalar RSUExampleScenario.node[98].veinsmobility 	totalDistance 	21.575013279151
scalar RSUExampleScenario.node[98].veinsmobility 	totalCO2Emission 	216.1728853673
scalar RSUExampleScenario.node[99].appl 	meanClusterNodes 	9
scalar RSUExampleScenario.node[99].appl 	meanClusterHeadUtility 	18.519830757599
scalar RSUExampleScenario.node[99].appl 	NumberofCH 	0.054054054054054
scalar RSUExampleScenario.node[99].appl 	NumberofON 	0.27027027027027
scalar RSUExampleScenario.node[99].appl 	NumberofFN 	0.67567567567568
scalar RSUExampleScenario.node[99].veinsmobility 	startTime 	238.6
scalar RSUExampleScenario.node[99].veinsmobility 	totalTime 	211.4
scalar RSUExampleScenario.node[99].veinsmobility 	stopTime 	450
scalar RSUExampleScenario.node[99].veinsmobility 	minSpeed 	0
scalar RSUExampleScenario.node[99].veinsmobility 	maxSpeed 	3.0731398310287
scalar RSUExampleScenario.node[99].veinsmobility 	totalDistance 	3.3020374745909
scalar RSUExampleScenario.node[99].veinsmobility 	totalCO2Emission 	207.09563181168
