version 2
run statisticLeach-340-20150323-07:11:57-8984
attr c 24
attr configname statisticLeach
attr datetime 20150323-07:11:57
attr experiment statisticLeach
attr inifile omnetpp.ini
attr iterationvars "$p=1/15, $c=24"
attr iterationvars2 "$p=1/15, $c=24, $repetition=0"
attr measurement "$p=1/15, $c=24"
attr network RSUExampleScenario
attr p 1/15
attr processid 8984
attr repetition 0
attr replication #0
attr resultdir results
attr runnumber 340
attr seedset 340

scalar . 	c 	24
scalar RSUExampleScenario.node[0].appl 	meanClusterNodes 	4
scalar RSUExampleScenario.node[0].appl 	meanClusterHeadUtility 	8.8351285840453
scalar RSUExampleScenario.node[0].appl 	NumberofCH 	0.10810810810811
scalar RSUExampleScenario.node[0].appl 	NumberofON 	0.081081081081081
scalar RSUExampleScenario.node[0].appl 	NumberofFN 	0.81081081081081
scalar RSUExampleScenario.node[0].veinsmobility 	startTime 	0.1
scalar RSUExampleScenario.node[0].veinsmobility 	totalTime 	449.9
scalar RSUExampleScenario.node[0].veinsmobility 	stopTime 	450
scalar RSUExampleScenario.node[0].veinsmobility 	minSpeed 	0
scalar RSUExampleScenario.node[0].veinsmobility 	maxSpeed 	13.999946905356
scalar RSUExampleScenario.node[0].veinsmobility 	totalDistance 	3133.4452243571
scalar RSUExampleScenario.node[0].veinsmobility 	totalCO2Emission 	839.16085264959
scalar RSUExampleScenario.node[1].appl 	meanClusterNodes 	6
scalar RSUExampleScenario.node[1].appl 	meanClusterHeadUtility 	18.07131894357
scalar RSUExampleScenario.node[1].appl 	NumberofCH 	0.054054054054054
scalar RSUExampleScenario.node[1].appl 	NumberofON 	0.18918918918919
scalar RSUExampleScenario.node[1].appl 	NumberofFN 	0.75675675675676
scalar RSUExampleScenario.node[1].veinsmobility 	startTime 	2.5
scalar RSUExampleScenario.node[1].veinsmobility 	totalTime 	447.5
scalar RSUExampleScenario.node[1].veinsmobility 	stopTime 	450
scalar RSUExampleScenario.node[1].veinsmobility 	minSpeed 	0
scalar RSUExampleScenario.node[1].veinsmobility 	maxSpeed 	13.999920889388
scalar RSUExampleScenario.node[1].veinsmobility 	totalDistance 	3083.2438278617
scalar RSUExampleScenario.node[1].veinsmobility 	totalCO2Emission 	830.47397418329
scalar RSUExampleScenario.node[10].appl 	meanClusterNodes 	5.3333333333333
scalar RSUExampleScenario.node[10].appl 	meanClusterHeadUtility 	11.974626726009
scalar RSUExampleScenario.node[10].appl 	NumberofCH 	0.081081081081081
scalar RSUExampleScenario.node[10].appl 	NumberofON 	0.27027027027027
scalar RSUExampleScenario.node[10].appl 	NumberofFN 	0.64864864864865
scalar RSUExampleScenario.node[10].veinsmobility 	startTime 	24.2
scalar RSUExampleScenario.node[10].veinsmobility 	totalTime 	425.8
scalar RSUExampleScenario.node[10].veinsmobility 	stopTime 	450
scalar RSUExampleScenario.node[10].veinsmobility 	minSpeed 	0
scalar RSUExampleScenario.node[10].veinsmobility 	maxSpeed 	13.999856687726
scalar RSUExampleScenario.node[10].veinsmobility 	totalDistance 	2788.4390205962
scalar RSUExampleScenario.node[10].veinsmobility 	totalCO2Emission 	760.57469654168
scalar RSUExampleScenario.node[11].appl 	meanClusterNodes 	2.5
scalar RSUExampleScenario.node[11].appl 	meanClusterHeadUtility 	8.0773835857499
scalar RSUExampleScenario.node[11].appl 	NumberofCH 	0.10810810810811
scalar RSUExampleScenario.node[11].appl 	NumberofON 	0.18918918918919
scalar RSUExampleScenario.node[11].appl 	NumberofFN 	0.7027027027027
scalar RSUExampleScenario.node[11].veinsmobility 	startTime 	26.6
scalar RSUExampleScenario.node[11].veinsmobility 	totalTime 	423.4
scalar RSUExampleScenario.node[11].veinsmobility 	stopTime 	450
scalar RSUExampleScenario.node[11].veinsmobility 	minSpeed 	0
scalar RSUExampleScenario.node[11].veinsmobility 	maxSpeed 	13.99985401134
scalar RSUExampleScenario.node[11].veinsmobility 	totalDistance 	2757.2664881873
scalar RSUExampleScenario.node[11].veinsmobility 	totalCO2Emission 	750.97264632951
scalar RSUExampleScenario.node[12].appl 	meanClusterNodes 	10
scalar RSUExampleScenario.node[12].appl 	meanClusterHeadUtility 	18.374849570581
scalar RSUExampleScenario.node[12].appl 	NumberofCH 	0.054054054054054
scalar RSUExampleScenario.node[12].appl 	NumberofON 	0.37837837837838
scalar RSUExampleScenario.node[12].appl 	NumberofFN 	0.56756756756757
scalar RSUExampleScenario.node[12].veinsmobility 	startTime 	29
scalar RSUExampleScenario.node[12].veinsmobility 	totalTime 	421
scalar RSUExampleScenario.node[12].veinsmobility 	stopTime 	450
scalar RSUExampleScenario.node[12].veinsmobility 	minSpeed 	0
scalar RSUExampleScenario.node[12].veinsmobility 	maxSpeed 	13.999945665943
scalar RSUExampleScenario.node[12].veinsmobility 	totalDistance 	2718.9423810252
scalar RSUExampleScenario.node[12].veinsmobility 	totalCO2Emission 	746.93879036058
scalar RSUExampleScenario.node[13].appl 	meanClusterNodes 	0
scalar RSUExampleScenario.node[13].appl 	meanClusterHeadUtility 	0
scalar RSUExampleScenario.node[13].appl 	NumberofCH 	0
scalar RSUExampleScenario.node[13].appl 	NumberofON 	0.51351351351351
scalar RSUExampleScenario.node[13].appl 	NumberofFN 	0.48648648648649
scalar RSUExampleScenario.node[13].veinsmobility 	startTime 	31.4
scalar RSUExampleScenario.node[13].veinsmobility 	totalTime 	418.6
scalar RSUExampleScenario.node[13].veinsmobility 	stopTime 	450
scalar RSUExampleScenario.node[13].veinsmobility 	minSpeed 	0
scalar RSUExampleScenario.node[13].veinsmobility 	maxSpeed 	13.999970257983
scalar RSUExampleScenario.node[13].veinsmobility 	totalDistance 	2685.8812489279
scalar RSUExampleScenario.node[13].veinsmobility 	totalCO2Emission 	741.92041221265
scalar RSUExampleScenario.node[14].appl 	meanClusterNodes 	4.6666666666667
scalar RSUExampleScenario.node[14].appl 	meanClusterHeadUtility 	11.484513071604
scalar RSUExampleScenario.node[14].appl 	NumberofCH 	0.081081081081081
scalar RSUExampleScenario.node[14].appl 	NumberofON 	0.54054054054054
scalar RSUExampleScenario.node[14].appl 	NumberofFN 	0.37837837837838
scalar RSUExampleScenario.node[14].veinsmobility 	startTime 	33.8
scalar RSUExampleScenario.node[14].veinsmobility 	totalTime 	416.2
scalar RSUExampleScenario.node[14].veinsmobility 	stopTime 	450
scalar RSUExampleScenario.node[14].veinsmobility 	minSpeed 	0
scalar RSUExampleScenario.node[14].veinsmobility 	maxSpeed 	13.999952793145
scalar RSUExampleScenario.node[14].veinsmobility 	totalDistance 	2648.9583811562
scalar RSUExampleScenario.node[14].veinsmobility 	totalCO2Emission 	732.38705928429
scalar RSUExampleScenario.node[15].appl 	meanClusterNodes 	7.5
scalar RSUExampleScenario.node[15].appl 	meanClusterHeadUtility 	17.990078070081
scalar RSUExampleScenario.node[15].appl 	NumberofCH 	0.054054054054054
scalar RSUExampleScenario.node[15].appl 	NumberofON 	0.56756756756757
scalar RSUExampleScenario.node[15].appl 	NumberofFN 	0.37837837837838
scalar RSUExampleScenario.node[15].veinsmobility 	startTime 	36.2
scalar RSUExampleScenario.node[15].veinsmobility 	totalTime 	413.8
scalar RSUExampleScenario.node[15].veinsmobility 	stopTime 	450
scalar RSUExampleScenario.node[15].veinsmobility 	minSpeed 	0
scalar RSUExampleScenario.node[15].veinsmobility 	maxSpeed 	13.999993258079
scalar RSUExampleScenario.node[15].veinsmobility 	totalDistance 	2618.8706345507
scalar RSUExampleScenario.node[15].veinsmobility 	totalCO2Emission 	733.98575811174
scalar RSUExampleScenario.node[16].appl 	meanClusterNodes 	5.5
scalar RSUExampleScenario.node[16].appl 	meanClusterHeadUtility 	9.0653579813693
scalar RSUExampleScenario.node[16].appl 	NumberofCH 	0.10810810810811
scalar RSUExampleScenario.node[16].appl 	NumberofON 	0.54054054054054
scalar RSUExampleScenario.node[16].appl 	NumberofFN 	0.35135135135135
scalar RSUExampleScenario.node[16].veinsmobility 	startTime 	38.6
scalar RSUExampleScenario.node[16].veinsmobility 	totalTime 	411.4
scalar RSUExampleScenario.node[16].veinsmobility 	stopTime 	450
scalar RSUExampleScenario.node[16].veinsmobility 	minSpeed 	0
scalar RSUExampleScenario.node[16].veinsmobility 	maxSpeed 	13.99993364695
scalar RSUExampleScenario.node[16].veinsmobility 	totalDistance 	2579.8460199217
scalar RSUExampleScenario.node[16].veinsmobility 	totalCO2Emission 	726.82420997096
scalar RSUExampleScenario.node[17].appl 	meanClusterNodes 	3
scalar RSUExampleScenario.node[17].appl 	meanClusterHeadUtility 	17.531926619358
scalar RSUExampleScenario.node[17].appl 	NumberofCH 	0.054054054054054
scalar RSUExampleScenario.node[17].appl 	NumberofON 	0.7027027027027
scalar RSUExampleScenario.node[17].appl 	NumberofFN 	0.24324324324324
scalar RSUExampleScenario.node[17].veinsmobility 	startTime 	41
scalar RSUExampleScenario.node[17].veinsmobility 	totalTime 	409
scalar RSUExampleScenario.node[17].veinsmobility 	stopTime 	450
scalar RSUExampleScenario.node[17].veinsmobility 	minSpeed 	0
scalar RSUExampleScenario.node[17].veinsmobility 	maxSpeed 	13.999919807853
scalar RSUExampleScenario.node[17].veinsmobility 	totalDistance 	2544.8935681845
scalar RSUExampleScenario.node[17].veinsmobility 	totalCO2Emission 	720.48125326518
scalar RSUExampleScenario.node[18].appl 	meanClusterNodes 	6.5
scalar RSUExampleScenario.node[18].appl 	meanClusterHeadUtility 	16.938651905287
scalar RSUExampleScenario.node[18].appl 	NumberofCH 	0.054054054054054
scalar RSUExampleScenario.node[18].appl 	NumberofON 	0.59459459459459
scalar RSUExampleScenario.node[18].appl 	NumberofFN 	0.35135135135135
scalar RSUExampleScenario.node[18].veinsmobility 	startTime 	43.4
scalar RSUExampleScenario.node[18].veinsmobility 	totalTime 	406.6
scalar RSUExampleScenario.node[18].veinsmobility 	stopTime 	450
scalar RSUExampleScenario.node[18].veinsmobility 	minSpeed 	0
scalar RSUExampleScenario.node[18].veinsmobility 	maxSpeed 	13.999969603347
scalar RSUExampleScenario.node[18].veinsmobility 	totalDistance 	2505.0764334171
scalar RSUExampleScenario.node[18].veinsmobility 	totalCO2Emission 	717.52398065637
scalar RSUExampleScenario.node[19].appl 	meanClusterNodes 	2.5
scalar RSUExampleScenario.node[19].appl 	meanClusterHeadUtility 	17.792180606952
scalar RSUExampleScenario.node[19].appl 	NumberofCH 	0.054054054054054
scalar RSUExampleScenario.node[19].appl 	NumberofON 	0.54054054054054
scalar RSUExampleScenario.node[19].appl 	NumberofFN 	0.40540540540541
scalar RSUExampleScenario.node[19].veinsmobility 	startTime 	45.8
scalar RSUExampleScenario.node[19].veinsmobility 	totalTime 	404.2
scalar RSUExampleScenario.node[19].veinsmobility 	stopTime 	450
scalar RSUExampleScenario.node[19].veinsmobility 	minSpeed 	0
scalar RSUExampleScenario.node[19].veinsmobility 	maxSpeed 	13.999945349037
scalar RSUExampleScenario.node[19].veinsmobility 	totalDistance 	2476.1219457619
scalar RSUExampleScenario.node[19].veinsmobility 	totalCO2Emission 	705.27661789198
scalar RSUExampleScenario.node[2].appl 	meanClusterNodes 	0
scalar RSUExampleScenario.node[2].appl 	meanClusterHeadUtility 	0
scalar RSUExampleScenario.node[2].appl 	NumberofCH 	0
scalar RSUExampleScenario.node[2].appl 	NumberofON 	0.45945945945946
scalar RSUExampleScenario.node[2].appl 	NumberofFN 	0.54054054054054
scalar RSUExampleScenario.node[2].veinsmobility 	startTime 	4.9
scalar RSUExampleScenario.node[2].veinsmobility 	totalTime 	445.1
scalar RSUExampleScenario.node[2].veinsmobility 	stopTime 	450
scalar RSUExampleScenario.node[2].veinsmobility 	minSpeed 	0
scalar RSUExampleScenario.node[2].veinsmobility 	maxSpeed 	13.999979675473
scalar RSUExampleScenario.node[2].veinsmobility 	totalDistance 	3035.2528916761
scalar RSUExampleScenario.node[2].veinsmobility 	totalCO2Emission 	821.84861570756
scalar RSUExampleScenario.node[20].appl 	meanClusterNodes 	4.5
scalar RSUExampleScenario.node[20].appl 	meanClusterHeadUtility 	16.584364941879
scalar RSUExampleScenario.node[20].appl 	NumberofCH 	0.054054054054054
scalar RSUExampleScenario.node[20].appl 	NumberofON 	0.32432432432432
scalar RSUExampleScenario.node[20].appl 	NumberofFN 	0.62162162162162
scalar RSUExampleScenario.node[20].veinsmobility 	startTime 	48.3
scalar RSUExampleScenario.node[20].veinsmobility 	totalTime 	401.7
scalar RSUExampleScenario.node[20].veinsmobility 	stopTime 	450
scalar RSUExampleScenario.node[20].veinsmobility 	minSpeed 	0
scalar RSUExampleScenario.node[20].veinsmobility 	maxSpeed 	13.999903186553
scalar RSUExampleScenario.node[20].veinsmobility 	totalDistance 	2435.4710087829
scalar RSUExampleScenario.node[20].veinsmobility 	totalCO2Emission 	701.45600178182
scalar RSUExampleScenario.node[21].appl 	meanClusterNodes 	0
scalar RSUExampleScenario.node[21].appl 	meanClusterHeadUtility 	0
scalar RSUExampleScenario.node[21].appl 	NumberofCH 	0.027027027027027
scalar RSUExampleScenario.node[21].appl 	NumberofON 	0.59459459459459
scalar RSUExampleScenario.node[21].appl 	NumberofFN 	0.37837837837838
scalar RSUExampleScenario.node[21].veinsmobility 	startTime 	50.7
scalar RSUExampleScenario.node[21].veinsmobility 	totalTime 	399.3
scalar RSUExampleScenario.node[21].veinsmobility 	stopTime 	450
scalar RSUExampleScenario.node[21].veinsmobility 	minSpeed 	0
scalar RSUExampleScenario.node[21].veinsmobility 	maxSpeed 	13.999999969823
scalar RSUExampleScenario.node[21].veinsmobility 	totalDistance 	2407.5068195234
scalar RSUExampleScenario.node[21].veinsmobility 	totalCO2Emission 	693.01144196107
scalar RSUExampleScenario.node[22].appl 	meanClusterNodes 	11
scalar RSUExampleScenario.node[22].appl 	meanClusterHeadUtility 	17.45636522113
scalar RSUExampleScenario.node[22].appl 	NumberofCH 	0.054054054054054
scalar RSUExampleScenario.node[22].appl 	NumberofON 	0.21621621621622
scalar RSUExampleScenario.node[22].appl 	NumberofFN 	0.72972972972973
scalar RSUExampleScenario.node[22].veinsmobility 	startTime 	53.1
scalar RSUExampleScenario.node[22].veinsmobility 	totalTime 	396.9
scalar RSUExampleScenario.node[22].veinsmobility 	stopTime 	450
scalar RSUExampleScenario.node[22].veinsmobility 	minSpeed 	0
scalar RSUExampleScenario.node[22].veinsmobility 	maxSpeed 	13.999900779128
scalar RSUExampleScenario.node[22].veinsmobility 	totalDistance 	2369.3592500135
scalar RSUExampleScenario.node[22].veinsmobility 	totalCO2Emission 	690.00720606339
scalar RSUExampleScenario.node[23].appl 	meanClusterNodes 	9
scalar RSUExampleScenario.node[23].appl 	meanClusterHeadUtility 	16.612978562377
scalar RSUExampleScenario.node[23].appl 	NumberofCH 	0.054054054054054
scalar RSUExampleScenario.node[23].appl 	NumberofON 	0.56756756756757
scalar RSUExampleScenario.node[23].appl 	NumberofFN 	0.37837837837838
scalar RSUExampleScenario.node[23].veinsmobility 	startTime 	55.5
scalar RSUExampleScenario.node[23].veinsmobility 	totalTime 	394.5
scalar RSUExampleScenario.node[23].veinsmobility 	stopTime 	450
scalar RSUExampleScenario.node[23].veinsmobility 	minSpeed 	0
scalar RSUExampleScenario.node[23].veinsmobility 	maxSpeed 	13.99991068481
scalar RSUExampleScenario.node[23].veinsmobility 	totalDistance 	2340.2863333616
scalar RSUExampleScenario.node[23].veinsmobility 	totalCO2Emission 	686.80819032928
scalar RSUExampleScenario.node[24].appl 	meanClusterNodes 	6.5
scalar RSUExampleScenario.node[24].appl 	meanClusterHeadUtility 	17.898118856422
scalar RSUExampleScenario.node[24].appl 	NumberofCH 	0.054054054054054
scalar RSUExampleScenario.node[24].appl 	NumberofON 	0.32432432432432
scalar RSUExampleScenario.node[24].appl 	NumberofFN 	0.62162162162162
scalar RSUExampleScenario.node[24].veinsmobility 	startTime 	57.9
scalar RSUExampleScenario.node[24].veinsmobility 	totalTime 	392.1
scalar RSUExampleScenario.node[24].veinsmobility 	stopTime 	450
scalar RSUExampleScenario.node[24].veinsmobility 	minSpeed 	0
scalar RSUExampleScenario.node[24].veinsmobility 	maxSpeed 	13.999838920117
scalar RSUExampleScenario.node[24].veinsmobility 	totalDistance 	2301.4676170177
scalar RSUExampleScenario.node[24].veinsmobility 	totalCO2Emission 	675.32654044749
scalar RSUExampleScenario.node[25].appl 	meanClusterNodes 	8.75
scalar RSUExampleScenario.node[25].appl 	meanClusterHeadUtility 	8.1986368010718
scalar RSUExampleScenario.node[25].appl 	NumberofCH 	0.10810810810811
scalar RSUExampleScenario.node[25].appl 	NumberofON 	0.45945945945946
scalar RSUExampleScenario.node[25].appl 	NumberofFN 	0.43243243243243
scalar RSUExampleScenario.node[25].veinsmobility 	startTime 	60.3
scalar RSUExampleScenario.node[25].veinsmobility 	totalTime 	389.7
scalar RSUExampleScenario.node[25].veinsmobility 	stopTime 	450
scalar RSUExampleScenario.node[25].veinsmobility 	minSpeed 	0
scalar RSUExampleScenario.node[25].veinsmobility 	maxSpeed 	13.999930423591
scalar RSUExampleScenario.node[25].veinsmobility 	totalDistance 	2271.6700419968
scalar RSUExampleScenario.node[25].veinsmobility 	totalCO2Emission 	673.166961369
scalar RSUExampleScenario.node[26].appl 	meanClusterNodes 	6
scalar RSUExampleScenario.node[26].appl 	meanClusterHeadUtility 	17.108155500971
scalar RSUExampleScenario.node[26].appl 	NumberofCH 	0.054054054054054
scalar RSUExampleScenario.node[26].appl 	NumberofON 	0.43243243243243
scalar RSUExampleScenario.node[26].appl 	NumberofFN 	0.51351351351351
scalar RSUExampleScenario.node[26].veinsmobility 	startTime 	62.7
scalar RSUExampleScenario.node[26].veinsmobility 	totalTime 	387.3
scalar RSUExampleScenario.node[26].veinsmobility 	stopTime 	450
scalar RSUExampleScenario.node[26].veinsmobility 	minSpeed 	0
scalar RSUExampleScenario.node[26].veinsmobility 	maxSpeed 	13.999927838796
scalar RSUExampleScenario.node[26].veinsmobility 	totalDistance 	2232.709533542
scalar RSUExampleScenario.node[26].veinsmobility 	totalCO2Emission 	666.97150989845
scalar RSUExampleScenario.node[27].appl 	meanClusterNodes 	5.5
scalar RSUExampleScenario.node[27].appl 	meanClusterHeadUtility 	8.797435383385
scalar RSUExampleScenario.node[27].appl 	NumberofCH 	0.10810810810811
scalar RSUExampleScenario.node[27].appl 	NumberofON 	0.75675675675676
scalar RSUExampleScenario.node[27].appl 	NumberofFN 	0.13513513513514
scalar RSUExampleScenario.node[27].veinsmobility 	startTime 	65.1
scalar RSUExampleScenario.node[27].veinsmobility 	totalTime 	384.9
scalar RSUExampleScenario.node[27].veinsmobility 	stopTime 	450
scalar RSUExampleScenario.node[27].veinsmobility 	minSpeed 	0
scalar RSUExampleScenario.node[27].veinsmobility 	maxSpeed 	13.999986507925
scalar RSUExampleScenario.node[27].veinsmobility 	totalDistance 	2205.1223077059
scalar RSUExampleScenario.node[27].veinsmobility 	totalCO2Emission 	660.1110718131
scalar RSUExampleScenario.node[28].appl 	meanClusterNodes 	7
scalar RSUExampleScenario.node[28].appl 	meanClusterHeadUtility 	9.2789011301949
scalar RSUExampleScenario.node[28].appl 	NumberofCH 	0.10810810810811
scalar RSUExampleScenario.node[28].appl 	NumberofON 	0.51351351351351
scalar RSUExampleScenario.node[28].appl 	NumberofFN 	0.37837837837838
scalar RSUExampleScenario.node[28].veinsmobility 	startTime 	67.5
scalar RSUExampleScenario.node[28].veinsmobility 	totalTime 	382.5
scalar RSUExampleScenario.node[28].veinsmobility 	stopTime 	450
scalar RSUExampleScenario.node[28].veinsmobility 	minSpeed 	0
scalar RSUExampleScenario.node[28].veinsmobility 	maxSpeed 	13.999970501489
scalar RSUExampleScenario.node[28].veinsmobility 	totalDistance 	2166.4859424067
scalar RSUExampleScenario.node[28].veinsmobility 	totalCO2Emission 	653.76838546842
scalar RSUExampleScenario.node[29].appl 	meanClusterNodes 	1.5
scalar RSUExampleScenario.node[29].appl 	meanClusterHeadUtility 	15.614372727988
scalar RSUExampleScenario.node[29].appl 	NumberofCH 	0.054054054054054
scalar RSUExampleScenario.node[29].appl 	NumberofON 	0.81081081081081
scalar RSUExampleScenario.node[29].appl 	NumberofFN 	0.13513513513514
scalar RSUExampleScenario.node[29].veinsmobility 	startTime 	69.9
scalar RSUExampleScenario.node[29].veinsmobility 	totalTime 	380.1
scalar RSUExampleScenario.node[29].veinsmobility 	stopTime 	450
scalar RSUExampleScenario.node[29].veinsmobility 	minSpeed 	0
scalar RSUExampleScenario.node[29].veinsmobility 	maxSpeed 	13.999923928082
scalar RSUExampleScenario.node[29].veinsmobility 	totalDistance 	2135.8699939601
scalar RSUExampleScenario.node[29].veinsmobility 	totalCO2Emission 	649.31631722713
scalar RSUExampleScenario.node[3].appl 	meanClusterNodes 	7
scalar RSUExampleScenario.node[3].appl 	meanClusterHeadUtility 	8.5464609052219
scalar RSUExampleScenario.node[3].appl 	NumberofCH 	0.10810810810811
scalar RSUExampleScenario.node[3].appl 	NumberofON 	0.40540540540541
scalar RSUExampleScenario.node[3].appl 	NumberofFN 	0.48648648648649
scalar RSUExampleScenario.node[3].veinsmobility 	startTime 	7.3
scalar RSUExampleScenario.node[3].veinsmobility 	totalTime 	442.7
scalar RSUExampleScenario.node[3].veinsmobility 	stopTime 	450
scalar RSUExampleScenario.node[3].veinsmobility 	minSpeed 	0
scalar RSUExampleScenario.node[3].veinsmobility 	maxSpeed 	13.999987154359
scalar RSUExampleScenario.node[3].veinsmobility 	totalDistance 	2996.5210315373
scalar RSUExampleScenario.node[3].veinsmobility 	totalCO2Emission 	816.64472234828
scalar RSUExampleScenario.node[30].appl 	meanClusterNodes 	4.5
scalar RSUExampleScenario.node[30].appl 	meanClusterHeadUtility 	8.079941891612
scalar RSUExampleScenario.node[30].appl 	NumberofCH 	0.10810810810811
scalar RSUExampleScenario.node[30].appl 	NumberofON 	0.59459459459459
scalar RSUExampleScenario.node[30].appl 	NumberofFN 	0.2972972972973
scalar RSUExampleScenario.node[30].veinsmobility 	startTime 	72.4
scalar RSUExampleScenario.node[30].veinsmobility 	totalTime 	377.6
scalar RSUExampleScenario.node[30].veinsmobility 	stopTime 	450
scalar RSUExampleScenario.node[30].veinsmobility 	minSpeed 	0
scalar RSUExampleScenario.node[30].veinsmobility 	maxSpeed 	13.9999280629
scalar RSUExampleScenario.node[30].veinsmobility 	totalDistance 	2100.0367603835
scalar RSUExampleScenario.node[30].veinsmobility 	totalCO2Emission 	642.46577216704
scalar RSUExampleScenario.node[31].appl 	meanClusterNodes 	0
scalar RSUExampleScenario.node[31].appl 	meanClusterHeadUtility 	0
scalar RSUExampleScenario.node[31].appl 	NumberofCH 	0
scalar RSUExampleScenario.node[31].appl 	NumberofON 	0.45945945945946
scalar RSUExampleScenario.node[31].appl 	NumberofFN 	0.54054054054054
scalar RSUExampleScenario.node[31].veinsmobility 	startTime 	74.8
scalar RSUExampleScenario.node[31].veinsmobility 	totalTime 	375.2
scalar RSUExampleScenario.node[31].veinsmobility 	stopTime 	450
scalar RSUExampleScenario.node[31].veinsmobility 	minSpeed 	0
scalar RSUExampleScenario.node[31].veinsmobility 	maxSpeed 	13.999907999646
scalar RSUExampleScenario.node[31].veinsmobility 	totalDistance 	2067.8761985387
scalar RSUExampleScenario.node[31].veinsmobility 	totalCO2Emission 	638.68022003639
scalar RSUExampleScenario.node[32].appl 	meanClusterNodes 	0
scalar RSUExampleScenario.node[32].appl 	meanClusterHeadUtility 	0
scalar RSUExampleScenario.node[32].appl 	NumberofCH 	0
scalar RSUExampleScenario.node[32].appl 	NumberofON 	0.64864864864865
scalar RSUExampleScenario.node[32].appl 	NumberofFN 	0.35135135135135
scalar RSUExampleScenario.node[32].veinsmobility 	startTime 	77.2
scalar RSUExampleScenario.node[32].veinsmobility 	totalTime 	372.8
scalar RSUExampleScenario.node[32].veinsmobility 	stopTime 	450
scalar RSUExampleScenario.node[32].veinsmobility 	minSpeed 	0
scalar RSUExampleScenario.node[32].veinsmobility 	maxSpeed 	13.999997795129
scalar RSUExampleScenario.node[32].veinsmobility 	totalDistance 	2033.1208112493
scalar RSUExampleScenario.node[32].veinsmobility 	totalCO2Emission 	633.04362265458
scalar RSUExampleScenario.node[33].appl 	meanClusterNodes 	4.5
scalar RSUExampleScenario.node[33].appl 	meanClusterHeadUtility 	8.5375659324858
scalar RSUExampleScenario.node[33].appl 	NumberofCH 	0.10810810810811
scalar RSUExampleScenario.node[33].appl 	NumberofON 	0.45945945945946
scalar RSUExampleScenario.node[33].appl 	NumberofFN 	0.43243243243243
scalar RSUExampleScenario.node[33].veinsmobility 	startTime 	79.6
scalar RSUExampleScenario.node[33].veinsmobility 	totalTime 	370.4
scalar RSUExampleScenario.node[33].veinsmobility 	stopTime 	450
scalar RSUExampleScenario.node[33].veinsmobility 	minSpeed 	0
scalar RSUExampleScenario.node[33].veinsmobility 	maxSpeed 	13.999900358676
scalar RSUExampleScenario.node[33].veinsmobility 	totalDistance 	1999.423416464
scalar RSUExampleScenario.node[33].veinsmobility 	totalCO2Emission 	629.52704835656
scalar RSUExampleScenario.node[34].appl 	meanClusterNodes 	0
scalar RSUExampleScenario.node[34].appl 	meanClusterHeadUtility 	0
scalar RSUExampleScenario.node[34].appl 	NumberofCH 	0.054054054054054
scalar RSUExampleScenario.node[34].appl 	NumberofON 	0
scalar RSUExampleScenario.node[34].appl 	NumberofFN 	0.94594594594595
scalar RSUExampleScenario.node[34].veinsmobility 	startTime 	82
scalar RSUExampleScenario.node[34].veinsmobility 	totalTime 	368
scalar RSUExampleScenario.node[34].veinsmobility 	stopTime 	450
scalar RSUExampleScenario.node[34].veinsmobility 	minSpeed 	0
scalar RSUExampleScenario.node[34].veinsmobility 	maxSpeed 	13.999506826459
scalar RSUExampleScenario.node[34].veinsmobility 	totalDistance 	1966.184357699
scalar RSUExampleScenario.node[34].veinsmobility 	totalCO2Emission 	621.1750851593
scalar RSUExampleScenario.node[35].appl 	meanClusterNodes 	12.5
scalar RSUExampleScenario.node[35].appl 	meanClusterHeadUtility 	16.932918591173
scalar RSUExampleScenario.node[35].appl 	NumberofCH 	0.054054054054054
scalar RSUExampleScenario.node[35].appl 	NumberofON 	0.48648648648649
scalar RSUExampleScenario.node[35].appl 	NumberofFN 	0.45945945945946
scalar RSUExampleScenario.node[35].veinsmobility 	startTime 	84.4
scalar RSUExampleScenario.node[35].veinsmobility 	totalTime 	365.6
scalar RSUExampleScenario.node[35].veinsmobility 	stopTime 	450
scalar RSUExampleScenario.node[35].veinsmobility 	minSpeed 	0
scalar RSUExampleScenario.node[35].veinsmobility 	maxSpeed 	13.999846516806
scalar RSUExampleScenario.node[35].veinsmobility 	totalDistance 	1930.1496665302
scalar RSUExampleScenario.node[35].veinsmobility 	totalCO2Emission 	616.53338418405
scalar RSUExampleScenario.node[36].appl 	meanClusterNodes 	7
scalar RSUExampleScenario.node[36].appl 	meanClusterHeadUtility 	17.710611409139
scalar RSUExampleScenario.node[36].appl 	NumberofCH 	0.054054054054054
scalar RSUExampleScenario.node[36].appl 	NumberofON 	0.62162162162162
scalar RSUExampleScenario.node[36].appl 	NumberofFN 	0.32432432432432
scalar RSUExampleScenario.node[36].veinsmobility 	startTime 	86.8
scalar RSUExampleScenario.node[36].veinsmobility 	totalTime 	363.2
scalar RSUExampleScenario.node[36].veinsmobility 	stopTime 	450
scalar RSUExampleScenario.node[36].veinsmobility 	minSpeed 	0
scalar RSUExampleScenario.node[36].veinsmobility 	maxSpeed 	13.999994114451
scalar RSUExampleScenario.node[36].veinsmobility 	totalDistance 	1899.2731920791
scalar RSUExampleScenario.node[36].veinsmobility 	totalCO2Emission 	611.15851459581
scalar RSUExampleScenario.node[37].appl 	meanClusterNodes 	4.75
scalar RSUExampleScenario.node[37].appl 	meanClusterHeadUtility 	8.5008681705442
scalar RSUExampleScenario.node[37].appl 	NumberofCH 	0.10810810810811
scalar RSUExampleScenario.node[37].appl 	NumberofON 	0.67567567567568
scalar RSUExampleScenario.node[37].appl 	NumberofFN 	0.21621621621622
scalar RSUExampleScenario.node[37].veinsmobility 	startTime 	89.2
scalar RSUExampleScenario.node[37].veinsmobility 	totalTime 	360.8
scalar RSUExampleScenario.node[37].veinsmobility 	stopTime 	450
scalar RSUExampleScenario.node[37].veinsmobility 	minSpeed 	0
scalar RSUExampleScenario.node[37].veinsmobility 	maxSpeed 	13.999726773484
scalar RSUExampleScenario.node[37].veinsmobility 	totalDistance 	1865.6134631087
scalar RSUExampleScenario.node[37].veinsmobility 	totalCO2Emission 	604.34868084283
scalar RSUExampleScenario.node[38].appl 	meanClusterNodes 	3
scalar RSUExampleScenario.node[38].appl 	meanClusterHeadUtility 	16.039271518401
scalar RSUExampleScenario.node[38].appl 	NumberofCH 	0.054054054054054
scalar RSUExampleScenario.node[38].appl 	NumberofON 	0.72972972972973
scalar RSUExampleScenario.node[38].appl 	NumberofFN 	0.21621621621622
scalar RSUExampleScenario.node[38].veinsmobility 	startTime 	91.6
scalar RSUExampleScenario.node[38].veinsmobility 	totalTime 	358.4
scalar RSUExampleScenario.node[38].veinsmobility 	stopTime 	450
scalar RSUExampleScenario.node[38].veinsmobility 	minSpeed 	0
scalar RSUExampleScenario.node[38].veinsmobility 	maxSpeed 	13.999656711002
scalar RSUExampleScenario.node[38].veinsmobility 	totalDistance 	1829.7294728334
scalar RSUExampleScenario.node[38].veinsmobility 	totalCO2Emission 	599.96542854968
scalar RSUExampleScenario.node[39].appl 	meanClusterNodes 	5.5
scalar RSUExampleScenario.node[39].appl 	meanClusterHeadUtility 	17.361015578992
scalar RSUExampleScenario.node[39].appl 	NumberofCH 	0.054054054054054
scalar RSUExampleScenario.node[39].appl 	NumberofON 	0.64864864864865
scalar RSUExampleScenario.node[39].appl 	NumberofFN 	0.2972972972973
scalar RSUExampleScenario.node[39].veinsmobility 	startTime 	94
scalar RSUExampleScenario.node[39].veinsmobility 	totalTime 	356
scalar RSUExampleScenario.node[39].veinsmobility 	stopTime 	450
scalar RSUExampleScenario.node[39].veinsmobility 	minSpeed 	0
scalar RSUExampleScenario.node[39].veinsmobility 	maxSpeed 	13.999962344358
scalar RSUExampleScenario.node[39].veinsmobility 	totalDistance 	1795.4440249831
scalar RSUExampleScenario.node[39].veinsmobility 	totalCO2Emission 	591.20735165303
scalar RSUExampleScenario.node[4].appl 	meanClusterNodes 	7.5
scalar RSUExampleScenario.node[4].appl 	meanClusterHeadUtility 	17.44811960412
scalar RSUExampleScenario.node[4].appl 	NumberofCH 	0.054054054054054
scalar RSUExampleScenario.node[4].appl 	NumberofON 	0.37837837837838
scalar RSUExampleScenario.node[4].appl 	NumberofFN 	0.56756756756757
scalar RSUExampleScenario.node[4].veinsmobility 	startTime 	9.7
scalar RSUExampleScenario.node[4].veinsmobility 	totalTime 	440.3
scalar RSUExampleScenario.node[4].veinsmobility 	stopTime 	450
scalar RSUExampleScenario.node[4].veinsmobility 	minSpeed 	0
scalar RSUExampleScenario.node[4].veinsmobility 	maxSpeed 	13.999893953123
scalar RSUExampleScenario.node[4].veinsmobility 	totalDistance 	2945.1581410131
scalar RSUExampleScenario.node[4].veinsmobility 	totalCO2Emission 	801.69621923233
scalar RSUExampleScenario.node[40].appl 	meanClusterNodes 	9
scalar RSUExampleScenario.node[40].appl 	meanClusterHeadUtility 	17.106343167726
scalar RSUExampleScenario.node[40].appl 	NumberofCH 	0.054054054054054
scalar RSUExampleScenario.node[40].appl 	NumberofON 	0.45945945945946
scalar RSUExampleScenario.node[40].appl 	NumberofFN 	0.48648648648649
scalar RSUExampleScenario.node[40].veinsmobility 	startTime 	96.5
scalar RSUExampleScenario.node[40].veinsmobility 	totalTime 	353.5
scalar RSUExampleScenario.node[40].veinsmobility 	stopTime 	450
scalar RSUExampleScenario.node[40].veinsmobility 	minSpeed 	0
scalar RSUExampleScenario.node[40].veinsmobility 	maxSpeed 	13.999866527969
scalar RSUExampleScenario.node[40].veinsmobility 	totalDistance 	1762.9616996586
scalar RSUExampleScenario.node[40].veinsmobility 	totalCO2Emission 	586.5224790699
scalar RSUExampleScenario.node[41].appl 	meanClusterNodes 	8.5
scalar RSUExampleScenario.node[41].appl 	meanClusterHeadUtility 	16.656323332139
scalar RSUExampleScenario.node[41].appl 	NumberofCH 	0.054054054054054
scalar RSUExampleScenario.node[41].appl 	NumberofON 	0.56756756756757
scalar RSUExampleScenario.node[41].appl 	NumberofFN 	0.37837837837838
scalar RSUExampleScenario.node[41].veinsmobility 	startTime 	98.9
scalar RSUExampleScenario.node[41].veinsmobility 	totalTime 	351.1
scalar RSUExampleScenario.node[41].veinsmobility 	stopTime 	450
scalar RSUExampleScenario.node[41].veinsmobility 	minSpeed 	0
scalar RSUExampleScenario.node[41].veinsmobility 	maxSpeed 	13.999742580848
scalar RSUExampleScenario.node[41].veinsmobility 	totalDistance 	1728.1575122423
scalar RSUExampleScenario.node[41].veinsmobility 	totalCO2Emission 	580.86986095312
scalar RSUExampleScenario.node[42].appl 	meanClusterNodes 	11
scalar RSUExampleScenario.node[42].appl 	meanClusterHeadUtility 	11.560018697803
scalar RSUExampleScenario.node[42].appl 	NumberofCH 	0.081081081081081
scalar RSUExampleScenario.node[42].appl 	NumberofON 	0.32432432432432
scalar RSUExampleScenario.node[42].appl 	NumberofFN 	0.59459459459459
scalar RSUExampleScenario.node[42].veinsmobility 	startTime 	101.3
scalar RSUExampleScenario.node[42].veinsmobility 	totalTime 	348.7
scalar RSUExampleScenario.node[42].veinsmobility 	stopTime 	450
scalar RSUExampleScenario.node[42].veinsmobility 	minSpeed 	0
scalar RSUExampleScenario.node[42].veinsmobility 	maxSpeed 	13.999926653623
scalar RSUExampleScenario.node[42].veinsmobility 	totalDistance 	1695.5490824495
scalar RSUExampleScenario.node[42].veinsmobility 	totalCO2Emission 	576.72313838226
scalar RSUExampleScenario.node[43].appl 	meanClusterNodes 	4
scalar RSUExampleScenario.node[43].appl 	meanClusterHeadUtility 	17.711773034921
scalar RSUExampleScenario.node[43].appl 	NumberofCH 	0.054054054054054
scalar RSUExampleScenario.node[43].appl 	NumberofON 	0.7027027027027
scalar RSUExampleScenario.node[43].appl 	NumberofFN 	0.24324324324324
scalar RSUExampleScenario.node[43].veinsmobility 	startTime 	103.7
scalar RSUExampleScenario.node[43].veinsmobility 	totalTime 	346.3
scalar RSUExampleScenario.node[43].veinsmobility 	stopTime 	450
scalar RSUExampleScenario.node[43].veinsmobility 	minSpeed 	0
scalar RSUExampleScenario.node[43].veinsmobility 	maxSpeed 	13.999692028472
scalar RSUExampleScenario.node[43].veinsmobility 	totalDistance 	1661.9709142599
scalar RSUExampleScenario.node[43].veinsmobility 	totalCO2Emission 	570.73780932702
scalar RSUExampleScenario.node[44].appl 	meanClusterNodes 	7.5
scalar RSUExampleScenario.node[44].appl 	meanClusterHeadUtility 	17.317495782748
scalar RSUExampleScenario.node[44].appl 	NumberofCH 	0.054054054054054
scalar RSUExampleScenario.node[44].appl 	NumberofON 	0.72972972972973
scalar RSUExampleScenario.node[44].appl 	NumberofFN 	0.21621621621622
scalar RSUExampleScenario.node[44].veinsmobility 	startTime 	106.1
scalar RSUExampleScenario.node[44].veinsmobility 	totalTime 	343.9
scalar RSUExampleScenario.node[44].veinsmobility 	stopTime 	450
scalar RSUExampleScenario.node[44].veinsmobility 	minSpeed 	0
scalar RSUExampleScenario.node[44].veinsmobility 	maxSpeed 	13.999779430605
scalar RSUExampleScenario.node[44].veinsmobility 	totalDistance 	1628.8238628421
scalar RSUExampleScenario.node[44].veinsmobility 	totalCO2Emission 	564.09185364019
scalar RSUExampleScenario.node[45].appl 	meanClusterNodes 	7
scalar RSUExampleScenario.node[45].appl 	meanClusterHeadUtility 	17.062395144836
scalar RSUExampleScenario.node[45].appl 	NumberofCH 	0.054054054054054
scalar RSUExampleScenario.node[45].appl 	NumberofON 	0.54054054054054
scalar RSUExampleScenario.node[45].appl 	NumberofFN 	0.40540540540541
scalar RSUExampleScenario.node[45].veinsmobility 	startTime 	108.5
scalar RSUExampleScenario.node[45].veinsmobility 	totalTime 	341.5
scalar RSUExampleScenario.node[45].veinsmobility 	stopTime 	450
scalar RSUExampleScenario.node[45].veinsmobility 	minSpeed 	0
scalar RSUExampleScenario.node[45].veinsmobility 	maxSpeed 	13.999974201024
scalar RSUExampleScenario.node[45].veinsmobility 	totalDistance 	1595.0897421176
scalar RSUExampleScenario.node[45].veinsmobility 	totalCO2Emission 	560.31176725158
scalar RSUExampleScenario.node[46].appl 	meanClusterNodes 	4.5
scalar RSUExampleScenario.node[46].appl 	meanClusterHeadUtility 	8.8039146095554
scalar RSUExampleScenario.node[46].appl 	NumberofCH 	0.10810810810811
scalar RSUExampleScenario.node[46].appl 	NumberofON 	0.67567567567568
scalar RSUExampleScenario.node[46].appl 	NumberofFN 	0.21621621621622
scalar RSUExampleScenario.node[46].veinsmobility 	startTime 	110.9
scalar RSUExampleScenario.node[46].veinsmobility 	totalTime 	339.1
scalar RSUExampleScenario.node[46].veinsmobility 	stopTime 	450
scalar RSUExampleScenario.node[46].veinsmobility 	minSpeed 	0
scalar RSUExampleScenario.node[46].veinsmobility 	maxSpeed 	13.999993833473
scalar RSUExampleScenario.node[46].veinsmobility 	totalDistance 	1561.4540698703
scalar RSUExampleScenario.node[46].veinsmobility 	totalCO2Emission 	552.02500974601
scalar RSUExampleScenario.node[47].appl 	meanClusterNodes 	0
scalar RSUExampleScenario.node[47].appl 	meanClusterHeadUtility 	0
scalar RSUExampleScenario.node[47].appl 	NumberofCH 	0
scalar RSUExampleScenario.node[47].appl 	NumberofON 	0.67567567567568
scalar RSUExampleScenario.node[47].appl 	NumberofFN 	0.32432432432432
scalar RSUExampleScenario.node[47].veinsmobility 	startTime 	113.3
scalar RSUExampleScenario.node[47].veinsmobility 	totalTime 	336.7
scalar RSUExampleScenario.node[47].veinsmobility 	stopTime 	450
scalar RSUExampleScenario.node[47].veinsmobility 	minSpeed 	0
scalar RSUExampleScenario.node[47].veinsmobility 	maxSpeed 	13.999540162678
scalar RSUExampleScenario.node[47].veinsmobility 	totalDistance 	1528.9770038842
scalar RSUExampleScenario.node[47].veinsmobility 	totalCO2Emission 	544.72508938831
scalar RSUExampleScenario.node[48].appl 	meanClusterNodes 	3.25
scalar RSUExampleScenario.node[48].appl 	meanClusterHeadUtility 	9.1911715083248
scalar RSUExampleScenario.node[48].appl 	NumberofCH 	0.10810810810811
scalar RSUExampleScenario.node[48].appl 	NumberofON 	0.72972972972973
scalar RSUExampleScenario.node[48].appl 	NumberofFN 	0.16216216216216
scalar RSUExampleScenario.node[48].veinsmobility 	startTime 	115.7
scalar RSUExampleScenario.node[48].veinsmobility 	totalTime 	334.3
scalar RSUExampleScenario.node[48].veinsmobility 	stopTime 	450
scalar RSUExampleScenario.node[48].veinsmobility 	minSpeed 	0
scalar RSUExampleScenario.node[48].veinsmobility 	maxSpeed 	13.999777556381
scalar RSUExampleScenario.node[48].veinsmobility 	totalDistance 	1494.8543656589
scalar RSUExampleScenario.node[48].veinsmobility 	totalCO2Emission 	541.08895144078
scalar RSUExampleScenario.node[49].appl 	meanClusterNodes 	3
scalar RSUExampleScenario.node[49].appl 	meanClusterHeadUtility 	16.326456386279
scalar RSUExampleScenario.node[49].appl 	NumberofCH 	0.054054054054054
scalar RSUExampleScenario.node[49].appl 	NumberofON 	0.67567567567568
scalar RSUExampleScenario.node[49].appl 	NumberofFN 	0.27027027027027
scalar RSUExampleScenario.node[49].veinsmobility 	startTime 	118.1
scalar RSUExampleScenario.node[49].veinsmobility 	totalTime 	331.9
scalar RSUExampleScenario.node[49].veinsmobility 	stopTime 	450
scalar RSUExampleScenario.node[49].veinsmobility 	minSpeed 	0
scalar RSUExampleScenario.node[49].veinsmobility 	maxSpeed 	13.999836199509
scalar RSUExampleScenario.node[49].veinsmobility 	totalDistance 	1461.0314268425
scalar RSUExampleScenario.node[49].veinsmobility 	totalCO2Emission 	535.56058925317
scalar RSUExampleScenario.node[5].appl 	meanClusterNodes 	1.25
scalar RSUExampleScenario.node[5].appl 	meanClusterHeadUtility 	8.4429437921828
scalar RSUExampleScenario.node[5].appl 	NumberofCH 	0.10810810810811
scalar RSUExampleScenario.node[5].appl 	NumberofON 	0.27027027027027
scalar RSUExampleScenario.node[5].appl 	NumberofFN 	0.62162162162162
scalar RSUExampleScenario.node[5].veinsmobility 	startTime 	12.1
scalar RSUExampleScenario.node[5].veinsmobility 	totalTime 	437.9
scalar RSUExampleScenario.node[5].veinsmobility 	stopTime 	450
scalar RSUExampleScenario.node[5].veinsmobility 	minSpeed 	0
scalar RSUExampleScenario.node[5].veinsmobility 	maxSpeed 	13.999997023295
scalar RSUExampleScenario.node[5].veinsmobility 	totalDistance 	2917.2019923138
scalar RSUExampleScenario.node[5].veinsmobility 	totalCO2Emission 	782.52279698335
scalar RSUExampleScenario.node[50].appl 	meanClusterNodes 	5
scalar RSUExampleScenario.node[50].appl 	meanClusterHeadUtility 	7.6559475964717
scalar RSUExampleScenario.node[50].appl 	NumberofCH 	0.10810810810811
scalar RSUExampleScenario.node[50].appl 	NumberofON 	0.54054054054054
scalar RSUExampleScenario.node[50].appl 	NumberofFN 	0.35135135135135
scalar RSUExampleScenario.node[50].veinsmobility 	startTime 	120.6
scalar RSUExampleScenario.node[50].veinsmobility 	totalTime 	329.4
scalar RSUExampleScenario.node[50].veinsmobility 	stopTime 	450
scalar RSUExampleScenario.node[50].veinsmobility 	minSpeed 	0
scalar RSUExampleScenario.node[50].veinsmobility 	maxSpeed 	13.999862193412
scalar RSUExampleScenario.node[50].veinsmobility 	totalDistance 	1428.8384219101
scalar RSUExampleScenario.node[50].veinsmobility 	totalCO2Emission 	528.87418095265
scalar RSUExampleScenario.node[51].appl 	meanClusterNodes 	1.25
scalar RSUExampleScenario.node[51].appl 	meanClusterHeadUtility 	7.6046577479999
scalar RSUExampleScenario.node[51].appl 	NumberofCH 	0.10810810810811
scalar RSUExampleScenario.node[51].appl 	NumberofON 	0.67567567567568
scalar RSUExampleScenario.node[51].appl 	NumberofFN 	0.21621621621622
scalar RSUExampleScenario.node[51].veinsmobility 	startTime 	123
scalar RSUExampleScenario.node[51].veinsmobility 	totalTime 	327
scalar RSUExampleScenario.node[51].veinsmobility 	stopTime 	450
scalar RSUExampleScenario.node[51].veinsmobility 	minSpeed 	0
scalar RSUExampleScenario.node[51].veinsmobility 	maxSpeed 	13.999801204817
scalar RSUExampleScenario.node[51].veinsmobility 	totalDistance 	1392.9552228578
scalar RSUExampleScenario.node[51].veinsmobility 	totalCO2Emission 	526.64269321448
scalar RSUExampleScenario.node[52].appl 	meanClusterNodes 	0
scalar RSUExampleScenario.node[52].appl 	meanClusterHeadUtility 	0
scalar RSUExampleScenario.node[52].appl 	NumberofCH 	0.10810810810811
scalar RSUExampleScenario.node[52].appl 	NumberofON 	0
scalar RSUExampleScenario.node[52].appl 	NumberofFN 	0.89189189189189
scalar RSUExampleScenario.node[52].veinsmobility 	startTime 	125.4
scalar RSUExampleScenario.node[52].veinsmobility 	totalTime 	324.6
scalar RSUExampleScenario.node[52].veinsmobility 	stopTime 	450
scalar RSUExampleScenario.node[52].veinsmobility 	minSpeed 	0
scalar RSUExampleScenario.node[52].veinsmobility 	maxSpeed 	13.999165455967
scalar RSUExampleScenario.node[52].veinsmobility 	totalDistance 	1359.8574541065
scalar RSUExampleScenario.node[52].veinsmobility 	totalCO2Emission 	519.76706260354
scalar RSUExampleScenario.node[53].appl 	meanClusterNodes 	7.5
scalar RSUExampleScenario.node[53].appl 	meanClusterHeadUtility 	7.7722594367764
scalar RSUExampleScenario.node[53].appl 	NumberofCH 	0.10810810810811
scalar RSUExampleScenario.node[53].appl 	NumberofON 	0.48648648648649
scalar RSUExampleScenario.node[53].appl 	NumberofFN 	0.40540540540541
scalar RSUExampleScenario.node[53].veinsmobility 	startTime 	127.8
scalar RSUExampleScenario.node[53].veinsmobility 	totalTime 	322.2
scalar RSUExampleScenario.node[53].veinsmobility 	stopTime 	450
scalar RSUExampleScenario.node[53].veinsmobility 	minSpeed 	0
scalar RSUExampleScenario.node[53].veinsmobility 	maxSpeed 	13.999394106157
scalar RSUExampleScenario.node[53].veinsmobility 	totalDistance 	1324.6676327974
scalar RSUExampleScenario.node[53].veinsmobility 	totalCO2Emission 	513.845704013
scalar RSUExampleScenario.node[54].appl 	meanClusterNodes 	10
scalar RSUExampleScenario.node[54].appl 	meanClusterHeadUtility 	16.274744362699
scalar RSUExampleScenario.node[54].appl 	NumberofCH 	0.054054054054054
scalar RSUExampleScenario.node[54].appl 	NumberofON 	0.64864864864865
scalar RSUExampleScenario.node[54].appl 	NumberofFN 	0.2972972972973
scalar RSUExampleScenario.node[54].veinsmobility 	startTime 	130.2
scalar RSUExampleScenario.node[54].veinsmobility 	totalTime 	319.8
scalar RSUExampleScenario.node[54].veinsmobility 	stopTime 	450
scalar RSUExampleScenario.node[54].veinsmobility 	minSpeed 	0
scalar RSUExampleScenario.node[54].veinsmobility 	maxSpeed 	13.999394273448
scalar RSUExampleScenario.node[54].veinsmobility 	totalDistance 	1293.4306574527
scalar RSUExampleScenario.node[54].veinsmobility 	totalCO2Emission 	504.41628126002
scalar RSUExampleScenario.node[55].appl 	meanClusterNodes 	0
scalar RSUExampleScenario.node[55].appl 	meanClusterHeadUtility 	0
scalar RSUExampleScenario.node[55].appl 	NumberofCH 	0
scalar RSUExampleScenario.node[55].appl 	NumberofON 	0.7027027027027
scalar RSUExampleScenario.node[55].appl 	NumberofFN 	0.2972972972973
scalar RSUExampleScenario.node[55].veinsmobility 	startTime 	132.6
scalar RSUExampleScenario.node[55].veinsmobility 	totalTime 	317.4
scalar RSUExampleScenario.node[55].veinsmobility 	stopTime 	450
scalar RSUExampleScenario.node[55].veinsmobility 	minSpeed 	0
scalar RSUExampleScenario.node[55].veinsmobility 	maxSpeed 	13.999850746121
scalar RSUExampleScenario.node[55].veinsmobility 	totalDistance 	1259.87371354
scalar RSUExampleScenario.node[55].veinsmobility 	totalCO2Emission 	503.08525787418
scalar RSUExampleScenario.node[56].appl 	meanClusterNodes 	0
scalar RSUExampleScenario.node[56].appl 	meanClusterHeadUtility 	0
scalar RSUExampleScenario.node[56].appl 	NumberofCH 	0.10810810810811
scalar RSUExampleScenario.node[56].appl 	NumberofON 	0.27027027027027
scalar RSUExampleScenario.node[56].appl 	NumberofFN 	0.62162162162162
scalar RSUExampleScenario.node[56].veinsmobility 	startTime 	135
scalar RSUExampleScenario.node[56].veinsmobility 	totalTime 	315
scalar RSUExampleScenario.node[56].veinsmobility 	stopTime 	450
scalar RSUExampleScenario.node[56].veinsmobility 	minSpeed 	0
scalar RSUExampleScenario.node[56].veinsmobility 	maxSpeed 	13.99987721632
scalar RSUExampleScenario.node[56].veinsmobility 	totalDistance 	1226.1700987584
scalar RSUExampleScenario.node[56].veinsmobility 	totalCO2Emission 	499.37403466845
scalar RSUExampleScenario.node[57].appl 	meanClusterNodes 	8.75
scalar RSUExampleScenario.node[57].appl 	meanClusterHeadUtility 	8.5677877108885
scalar RSUExampleScenario.node[57].appl 	NumberofCH 	0.10810810810811
scalar RSUExampleScenario.node[57].appl 	NumberofON 	0.43243243243243
scalar RSUExampleScenario.node[57].appl 	NumberofFN 	0.45945945945946
scalar RSUExampleScenario.node[57].veinsmobility 	startTime 	137.4
scalar RSUExampleScenario.node[57].veinsmobility 	totalTime 	312.6
scalar RSUExampleScenario.node[57].veinsmobility 	stopTime 	450
scalar RSUExampleScenario.node[57].veinsmobility 	minSpeed 	0
scalar RSUExampleScenario.node[57].veinsmobility 	maxSpeed 	13.99991394446
scalar RSUExampleScenario.node[57].veinsmobility 	totalDistance 	1192.4117029256
scalar RSUExampleScenario.node[57].veinsmobility 	totalCO2Emission 	489.53558323602
scalar RSUExampleScenario.node[58].appl 	meanClusterNodes 	6.25
scalar RSUExampleScenario.node[58].appl 	meanClusterHeadUtility 	8.6354997889653
scalar RSUExampleScenario.node[58].appl 	NumberofCH 	0.10810810810811
scalar RSUExampleScenario.node[58].appl 	NumberofON 	0.48648648648649
scalar RSUExampleScenario.node[58].appl 	NumberofFN 	0.40540540540541
scalar RSUExampleScenario.node[58].veinsmobility 	startTime 	139.8
scalar RSUExampleScenario.node[58].veinsmobility 	totalTime 	310.2
scalar RSUExampleScenario.node[58].veinsmobility 	stopTime 	450
scalar RSUExampleScenario.node[58].veinsmobility 	minSpeed 	0
scalar RSUExampleScenario.node[58].veinsmobility 	maxSpeed 	13.999885970305
scalar RSUExampleScenario.node[58].veinsmobility 	totalDistance 	1157.2461821026
scalar RSUExampleScenario.node[58].veinsmobility 	totalCO2Emission 	484.70453068297
scalar RSUExampleScenario.node[59].appl 	meanClusterNodes 	4
scalar RSUExampleScenario.node[59].appl 	meanClusterHeadUtility 	17.813643230102
scalar RSUExampleScenario.node[59].appl 	NumberofCH 	0.054054054054054
scalar RSUExampleScenario.node[59].appl 	NumberofON 	0.45945945945946
scalar RSUExampleScenario.node[59].appl 	NumberofFN 	0.48648648648649
scalar RSUExampleScenario.node[59].veinsmobility 	startTime 	142.2
scalar RSUExampleScenario.node[59].veinsmobility 	totalTime 	307.8
scalar RSUExampleScenario.node[59].veinsmobility 	stopTime 	450
scalar RSUExampleScenario.node[59].veinsmobility 	minSpeed 	0
scalar RSUExampleScenario.node[59].veinsmobility 	maxSpeed 	13.999138612866
scalar RSUExampleScenario.node[59].veinsmobility 	totalDistance 	1124.3391306104
scalar RSUExampleScenario.node[59].veinsmobility 	totalCO2Emission 	479.50440808528
scalar RSUExampleScenario.node[6].appl 	meanClusterNodes 	9
scalar RSUExampleScenario.node[6].appl 	meanClusterHeadUtility 	18.767921722777
scalar RSUExampleScenario.node[6].appl 	NumberofCH 	0.054054054054054
scalar RSUExampleScenario.node[6].appl 	NumberofON 	0.32432432432432
scalar RSUExampleScenario.node[6].appl 	NumberofFN 	0.62162162162162
scalar RSUExampleScenario.node[6].veinsmobility 	startTime 	14.5
scalar RSUExampleScenario.node[6].veinsmobility 	totalTime 	435.5
scalar RSUExampleScenario.node[6].veinsmobility 	stopTime 	450
scalar RSUExampleScenario.node[6].veinsmobility 	minSpeed 	0
scalar RSUExampleScenario.node[6].veinsmobility 	maxSpeed 	13.999848645825
scalar RSUExampleScenario.node[6].veinsmobility 	totalDistance 	2900.793618305
scalar RSUExampleScenario.node[6].veinsmobility 	totalCO2Emission 	777.81835730065
scalar RSUExampleScenario.node[60].appl 	meanClusterNodes 	7
scalar RSUExampleScenario.node[60].appl 	meanClusterHeadUtility 	33.281959630792
scalar RSUExampleScenario.node[60].appl 	NumberofCH 	0.027027027027027
scalar RSUExampleScenario.node[60].appl 	NumberofON 	0.64864864864865
scalar RSUExampleScenario.node[60].appl 	NumberofFN 	0.32432432432432
scalar RSUExampleScenario.node[60].veinsmobility 	startTime 	144.7
scalar RSUExampleScenario.node[60].veinsmobility 	totalTime 	305.3
scalar RSUExampleScenario.node[60].veinsmobility 	stopTime 	450
scalar RSUExampleScenario.node[60].veinsmobility 	minSpeed 	0
scalar RSUExampleScenario.node[60].veinsmobility 	maxSpeed 	13.999646530789
scalar RSUExampleScenario.node[60].veinsmobility 	totalDistance 	1089.8751961988
scalar RSUExampleScenario.node[60].veinsmobility 	totalCO2Emission 	473.4039578619
scalar RSUExampleScenario.node[61].appl 	meanClusterNodes 	7.3333333333333
scalar RSUExampleScenario.node[61].appl 	meanClusterHeadUtility 	10.809995398267
scalar RSUExampleScenario.node[61].appl 	NumberofCH 	0.081081081081081
scalar RSUExampleScenario.node[61].appl 	NumberofON 	0.56756756756757
scalar RSUExampleScenario.node[61].appl 	NumberofFN 	0.35135135135135
scalar RSUExampleScenario.node[61].veinsmobility 	startTime 	147.1
scalar RSUExampleScenario.node[61].veinsmobility 	totalTime 	302.9
scalar RSUExampleScenario.node[61].veinsmobility 	stopTime 	450
scalar RSUExampleScenario.node[61].veinsmobility 	minSpeed 	0
scalar RSUExampleScenario.node[61].veinsmobility 	maxSpeed 	13.999476641743
scalar RSUExampleScenario.node[61].veinsmobility 	totalDistance 	1056.9307952972
scalar RSUExampleScenario.node[61].veinsmobility 	totalCO2Emission 	468.50831811586
scalar RSUExampleScenario.node[62].appl 	meanClusterNodes 	1.5
scalar RSUExampleScenario.node[62].appl 	meanClusterHeadUtility 	8.7394589714356
scalar RSUExampleScenario.node[62].appl 	NumberofCH 	0.10810810810811
scalar RSUExampleScenario.node[62].appl 	NumberofON 	0.13513513513514
scalar RSUExampleScenario.node[62].appl 	NumberofFN 	0.75675675675676
scalar RSUExampleScenario.node[62].veinsmobility 	startTime 	149.5
scalar RSUExampleScenario.node[62].veinsmobility 	totalTime 	300.5
scalar RSUExampleScenario.node[62].veinsmobility 	stopTime 	450
scalar RSUExampleScenario.node[62].veinsmobility 	minSpeed 	0
scalar RSUExampleScenario.node[62].veinsmobility 	maxSpeed 	13.999812597262
scalar RSUExampleScenario.node[62].veinsmobility 	totalDistance 	1021.2107123359
scalar RSUExampleScenario.node[62].veinsmobility 	totalCO2Emission 	462.13587111538
scalar RSUExampleScenario.node[63].appl 	meanClusterNodes 	4.5
scalar RSUExampleScenario.node[63].appl 	meanClusterHeadUtility 	8.911606048213
scalar RSUExampleScenario.node[63].appl 	NumberofCH 	0.10810810810811
scalar RSUExampleScenario.node[63].appl 	NumberofON 	0.56756756756757
scalar RSUExampleScenario.node[63].appl 	NumberofFN 	0.32432432432432
scalar RSUExampleScenario.node[63].veinsmobility 	startTime 	151.9
scalar RSUExampleScenario.node[63].veinsmobility 	totalTime 	298.1
scalar RSUExampleScenario.node[63].veinsmobility 	stopTime 	450
scalar RSUExampleScenario.node[63].veinsmobility 	minSpeed 	0
scalar RSUExampleScenario.node[63].veinsmobility 	maxSpeed 	13.999604116324
scalar RSUExampleScenario.node[63].veinsmobility 	totalDistance 	983.69099632288
scalar RSUExampleScenario.node[63].veinsmobility 	totalCO2Emission 	448.88715681461
scalar RSUExampleScenario.node[64].appl 	meanClusterNodes 	6
scalar RSUExampleScenario.node[64].appl 	meanClusterHeadUtility 	18.585236377704
scalar RSUExampleScenario.node[64].appl 	NumberofCH 	0.054054054054054
scalar RSUExampleScenario.node[64].appl 	NumberofON 	0.62162162162162
scalar RSUExampleScenario.node[64].appl 	NumberofFN 	0.32432432432432
scalar RSUExampleScenario.node[64].veinsmobility 	startTime 	154.3
scalar RSUExampleScenario.node[64].veinsmobility 	totalTime 	295.7
scalar RSUExampleScenario.node[64].veinsmobility 	stopTime 	450
scalar RSUExampleScenario.node[64].veinsmobility 	minSpeed 	0
scalar RSUExampleScenario.node[64].veinsmobility 	maxSpeed 	13.999628486864
scalar RSUExampleScenario.node[64].veinsmobility 	totalDistance 	952.94398189633
scalar RSUExampleScenario.node[64].veinsmobility 	totalCO2Emission 	433.88999799609
scalar RSUExampleScenario.node[65].appl 	meanClusterNodes 	5.75
scalar RSUExampleScenario.node[65].appl 	meanClusterHeadUtility 	8.9448640737238
scalar RSUExampleScenario.node[65].appl 	NumberofCH 	0.10810810810811
scalar RSUExampleScenario.node[65].appl 	NumberofON 	0.54054054054054
scalar RSUExampleScenario.node[65].appl 	NumberofFN 	0.35135135135135
scalar RSUExampleScenario.node[65].veinsmobility 	startTime 	156.7
scalar RSUExampleScenario.node[65].veinsmobility 	totalTime 	293.3
scalar RSUExampleScenario.node[65].veinsmobility 	stopTime 	450
scalar RSUExampleScenario.node[65].veinsmobility 	minSpeed 	0
scalar RSUExampleScenario.node[65].veinsmobility 	maxSpeed 	13.999979632371
scalar RSUExampleScenario.node[65].veinsmobility 	totalDistance 	940.20232295271
scalar RSUExampleScenario.node[65].veinsmobility 	totalCO2Emission 	427.57664723413
scalar RSUExampleScenario.node[66].appl 	meanClusterNodes 	2.5
scalar RSUExampleScenario.node[66].appl 	meanClusterHeadUtility 	19.7780258744
scalar RSUExampleScenario.node[66].appl 	NumberofCH 	0.054054054054054
scalar RSUExampleScenario.node[66].appl 	NumberofON 	0.67567567567568
scalar RSUExampleScenario.node[66].appl 	NumberofFN 	0.27027027027027
scalar RSUExampleScenario.node[66].veinsmobility 	startTime 	159.1
scalar RSUExampleScenario.node[66].veinsmobility 	totalTime 	290.9
scalar RSUExampleScenario.node[66].veinsmobility 	stopTime 	450
scalar RSUExampleScenario.node[66].veinsmobility 	minSpeed 	0
scalar RSUExampleScenario.node[66].veinsmobility 	maxSpeed 	13.999770905597
scalar RSUExampleScenario.node[66].veinsmobility 	totalDistance 	927.66967643003
scalar RSUExampleScenario.node[66].veinsmobility 	totalCO2Emission 	424.96584305525
scalar RSUExampleScenario.node[67].appl 	meanClusterNodes 	0
scalar RSUExampleScenario.node[67].appl 	meanClusterHeadUtility 	0
scalar RSUExampleScenario.node[67].appl 	NumberofCH 	0
scalar RSUExampleScenario.node[67].appl 	NumberofON 	0.72972972972973
scalar RSUExampleScenario.node[67].appl 	NumberofFN 	0.27027027027027
scalar RSUExampleScenario.node[67].veinsmobility 	startTime 	161.5
scalar RSUExampleScenario.node[67].veinsmobility 	totalTime 	288.5
scalar RSUExampleScenario.node[67].veinsmobility 	stopTime 	450
scalar RSUExampleScenario.node[67].veinsmobility 	minSpeed 	0
scalar RSUExampleScenario.node[67].veinsmobility 	maxSpeed 	13.999469303784
scalar RSUExampleScenario.node[67].veinsmobility 	totalDistance 	912.18775998305
scalar RSUExampleScenario.node[67].veinsmobility 	totalCO2Emission 	418.92279400199
scalar RSUExampleScenario.node[68].appl 	meanClusterNodes 	13
scalar RSUExampleScenario.node[68].appl 	meanClusterHeadUtility 	17.974818004487
scalar RSUExampleScenario.node[68].appl 	NumberofCH 	0.054054054054054
scalar RSUExampleScenario.node[68].appl 	NumberofON 	0.35135135135135
scalar RSUExampleScenario.node[68].appl 	NumberofFN 	0.59459459459459
scalar RSUExampleScenario.node[68].veinsmobility 	startTime 	163.9
scalar RSUExampleScenario.node[68].veinsmobility 	totalTime 	286.1
scalar RSUExampleScenario.node[68].veinsmobility 	stopTime 	450
scalar RSUExampleScenario.node[68].veinsmobility 	minSpeed 	0
scalar RSUExampleScenario.node[68].veinsmobility 	maxSpeed 	13.999922990229
scalar RSUExampleScenario.node[68].veinsmobility 	totalDistance 	892.45481807475
scalar RSUExampleScenario.node[68].veinsmobility 	totalCO2Emission 	419.9532478469
scalar RSUExampleScenario.node[69].appl 	meanClusterNodes 	0
scalar RSUExampleScenario.node[69].appl 	meanClusterHeadUtility 	0
scalar RSUExampleScenario.node[69].appl 	NumberofCH 	0.10810810810811
scalar RSUExampleScenario.node[69].appl 	NumberofON 	0
scalar RSUExampleScenario.node[69].appl 	NumberofFN 	0.89189189189189
scalar RSUExampleScenario.node[69].veinsmobility 	startTime 	166.3
scalar RSUExampleScenario.node[69].veinsmobility 	totalTime 	283.7
scalar RSUExampleScenario.node[69].veinsmobility 	stopTime 	450
scalar RSUExampleScenario.node[69].veinsmobility 	minSpeed 	0
scalar RSUExampleScenario.node[69].veinsmobility 	maxSpeed 	13.999295496487
scalar RSUExampleScenario.node[69].veinsmobility 	totalDistance 	859.75120982474
scalar RSUExampleScenario.node[69].veinsmobility 	totalCO2Emission 	413.82000066635
scalar RSUExampleScenario.node[7].appl 	meanClusterNodes 	2
scalar RSUExampleScenario.node[7].appl 	meanClusterHeadUtility 	8.684684311755
scalar RSUExampleScenario.node[7].appl 	NumberofCH 	0.10810810810811
scalar RSUExampleScenario.node[7].appl 	NumberofON 	0.40540540540541
scalar RSUExampleScenario.node[7].appl 	NumberofFN 	0.48648648648649
scalar RSUExampleScenario.node[7].veinsmobility 	startTime 	16.9
scalar RSUExampleScenario.node[7].veinsmobility 	totalTime 	433.1
scalar RSUExampleScenario.node[7].veinsmobility 	stopTime 	450
scalar RSUExampleScenario.node[7].veinsmobility 	minSpeed 	0
scalar RSUExampleScenario.node[7].veinsmobility 	maxSpeed 	13.999920612497
scalar RSUExampleScenario.node[7].veinsmobility 	totalDistance 	2888.6685051416
scalar RSUExampleScenario.node[7].veinsmobility 	totalCO2Emission 	777.30908941027
scalar RSUExampleScenario.node[70].appl 	meanClusterNodes 	4.5
scalar RSUExampleScenario.node[70].appl 	meanClusterHeadUtility 	16.583748834047
scalar RSUExampleScenario.node[70].appl 	NumberofCH 	0.054054054054054
scalar RSUExampleScenario.node[70].appl 	NumberofON 	0.62162162162162
scalar RSUExampleScenario.node[70].appl 	NumberofFN 	0.32432432432432
scalar RSUExampleScenario.node[70].veinsmobility 	startTime 	168.8
scalar RSUExampleScenario.node[70].veinsmobility 	totalTime 	281.2
scalar RSUExampleScenario.node[70].veinsmobility 	stopTime 	450
scalar RSUExampleScenario.node[70].veinsmobility 	minSpeed 	0
scalar RSUExampleScenario.node[70].veinsmobility 	maxSpeed 	13.999989657581
scalar RSUExampleScenario.node[70].veinsmobility 	totalDistance 	825.27680158746
scalar RSUExampleScenario.node[70].veinsmobility 	totalCO2Emission 	408.34711078131
scalar RSUExampleScenario.node[71].appl 	meanClusterNodes 	5
scalar RSUExampleScenario.node[71].appl 	meanClusterHeadUtility 	16.465453875622
scalar RSUExampleScenario.node[71].appl 	NumberofCH 	0.054054054054054
scalar RSUExampleScenario.node[71].appl 	NumberofON 	0.43243243243243
scalar RSUExampleScenario.node[71].appl 	NumberofFN 	0.51351351351351
scalar RSUExampleScenario.node[71].veinsmobility 	startTime 	171.2
scalar RSUExampleScenario.node[71].veinsmobility 	totalTime 	278.8
scalar RSUExampleScenario.node[71].veinsmobility 	stopTime 	450
scalar RSUExampleScenario.node[71].veinsmobility 	minSpeed 	0
scalar RSUExampleScenario.node[71].veinsmobility 	maxSpeed 	13.999918584542
scalar RSUExampleScenario.node[71].veinsmobility 	totalDistance 	790.8596904618
scalar RSUExampleScenario.node[71].veinsmobility 	totalCO2Emission 	400.8385821095
scalar RSUExampleScenario.node[72].appl 	meanClusterNodes 	5.5
scalar RSUExampleScenario.node[72].appl 	meanClusterHeadUtility 	15.670780354478
scalar RSUExampleScenario.node[72].appl 	NumberofCH 	0.054054054054054
scalar RSUExampleScenario.node[72].appl 	NumberofON 	0.75675675675676
scalar RSUExampleScenario.node[72].appl 	NumberofFN 	0.18918918918919
scalar RSUExampleScenario.node[72].veinsmobility 	startTime 	173.6
scalar RSUExampleScenario.node[72].veinsmobility 	totalTime 	276.4
scalar RSUExampleScenario.node[72].veinsmobility 	stopTime 	450
scalar RSUExampleScenario.node[72].veinsmobility 	minSpeed 	0
scalar RSUExampleScenario.node[72].veinsmobility 	maxSpeed 	13.999541169209
scalar RSUExampleScenario.node[72].veinsmobility 	totalDistance 	758.95668716399
scalar RSUExampleScenario.node[72].veinsmobility 	totalCO2Emission 	396.30186098656
scalar RSUExampleScenario.node[73].appl 	meanClusterNodes 	0
scalar RSUExampleScenario.node[73].appl 	meanClusterHeadUtility 	0
scalar RSUExampleScenario.node[73].appl 	NumberofCH 	0.054054054054054
scalar RSUExampleScenario.node[73].appl 	NumberofON 	0
scalar RSUExampleScenario.node[73].appl 	NumberofFN 	0.94594594594595
scalar RSUExampleScenario.node[73].veinsmobility 	startTime 	176
scalar RSUExampleScenario.node[73].veinsmobility 	totalTime 	274
scalar RSUExampleScenario.node[73].veinsmobility 	stopTime 	450
scalar RSUExampleScenario.node[73].veinsmobility 	minSpeed 	0
scalar RSUExampleScenario.node[73].veinsmobility 	maxSpeed 	13.999937184732
scalar RSUExampleScenario.node[73].veinsmobility 	totalDistance 	725.7746552065
scalar RSUExampleScenario.node[73].veinsmobility 	totalCO2Emission 	390.20371111456
scalar RSUExampleScenario.node[74].appl 	meanClusterNodes 	13
scalar RSUExampleScenario.node[74].appl 	meanClusterHeadUtility 	17.016926016522
scalar RSUExampleScenario.node[74].appl 	NumberofCH 	0.054054054054054
scalar RSUExampleScenario.node[74].appl 	NumberofON 	0.37837837837838
scalar RSUExampleScenario.node[74].appl 	NumberofFN 	0.56756756756757
scalar RSUExampleScenario.node[74].veinsmobility 	startTime 	178.4
scalar RSUExampleScenario.node[74].veinsmobility 	totalTime 	271.6
scalar RSUExampleScenario.node[74].veinsmobility 	stopTime 	450
scalar RSUExampleScenario.node[74].veinsmobility 	minSpeed 	0
scalar RSUExampleScenario.node[74].veinsmobility 	maxSpeed 	13.999841751868
scalar RSUExampleScenario.node[74].veinsmobility 	totalDistance 	691.43403387871
scalar RSUExampleScenario.node[74].veinsmobility 	totalCO2Emission 	383.88956907937
scalar RSUExampleScenario.node[75].appl 	meanClusterNodes 	9.75
scalar RSUExampleScenario.node[75].appl 	meanClusterHeadUtility 	8.4618256210245
scalar RSUExampleScenario.node[75].appl 	NumberofCH 	0.10810810810811
scalar RSUExampleScenario.node[75].appl 	NumberofON 	0.37837837837838
scalar RSUExampleScenario.node[75].appl 	NumberofFN 	0.51351351351351
scalar RSUExampleScenario.node[75].veinsmobility 	startTime 	180.8
scalar RSUExampleScenario.node[75].veinsmobility 	totalTime 	269.2
scalar RSUExampleScenario.node[75].veinsmobility 	stopTime 	450
scalar RSUExampleScenario.node[75].veinsmobility 	minSpeed 	0
scalar RSUExampleScenario.node[75].veinsmobility 	maxSpeed 	13.998763735716
scalar RSUExampleScenario.node[75].veinsmobility 	totalDistance 	658.59124717217
scalar RSUExampleScenario.node[75].veinsmobility 	totalCO2Emission 	379.05753762554
scalar RSUExampleScenario.node[76].appl 	meanClusterNodes 	0
scalar RSUExampleScenario.node[76].appl 	meanClusterHeadUtility 	0
scalar RSUExampleScenario.node[76].appl 	NumberofCH 	0
scalar RSUExampleScenario.node[76].appl 	NumberofON 	0.72972972972973
scalar RSUExampleScenario.node[76].appl 	NumberofFN 	0.27027027027027
scalar RSUExampleScenario.node[76].veinsmobility 	startTime 	183.2
scalar RSUExampleScenario.node[76].veinsmobility 	totalTime 	266.8
scalar RSUExampleScenario.node[76].veinsmobility 	stopTime 	450
scalar RSUExampleScenario.node[76].veinsmobility 	minSpeed 	0
scalar RSUExampleScenario.node[76].veinsmobility 	maxSpeed 	13.999965911501
scalar RSUExampleScenario.node[76].veinsmobility 	totalDistance 	624.61155070337
scalar RSUExampleScenario.node[76].veinsmobility 	totalCO2Emission 	374.75762183277
scalar RSUExampleScenario.node[77].appl 	meanClusterNodes 	2.5
scalar RSUExampleScenario.node[77].appl 	meanClusterHeadUtility 	9.4910567310596
scalar RSUExampleScenario.node[77].appl 	NumberofCH 	0.10810810810811
scalar RSUExampleScenario.node[77].appl 	NumberofON 	0.35135135135135
scalar RSUExampleScenario.node[77].appl 	NumberofFN 	0.54054054054054
scalar RSUExampleScenario.node[77].veinsmobility 	startTime 	185.6
scalar RSUExampleScenario.node[77].veinsmobility 	totalTime 	264.4
scalar RSUExampleScenario.node[77].veinsmobility 	stopTime 	450
scalar RSUExampleScenario.node[77].veinsmobility 	minSpeed 	0
scalar RSUExampleScenario.node[77].veinsmobility 	maxSpeed 	13.999955907054
scalar RSUExampleScenario.node[77].veinsmobility 	totalDistance 	591.09280911734
scalar RSUExampleScenario.node[77].veinsmobility 	totalCO2Emission 	367.9629731698
scalar RSUExampleScenario.node[78].appl 	meanClusterNodes 	9.25
scalar RSUExampleScenario.node[78].appl 	meanClusterHeadUtility 	9.0065278261095
scalar RSUExampleScenario.node[78].appl 	NumberofCH 	0.10810810810811
scalar RSUExampleScenario.node[78].appl 	NumberofON 	0.32432432432432
scalar RSUExampleScenario.node[78].appl 	NumberofFN 	0.56756756756757
scalar RSUExampleScenario.node[78].veinsmobility 	startTime 	188
scalar RSUExampleScenario.node[78].veinsmobility 	totalTime 	262
scalar RSUExampleScenario.node[78].veinsmobility 	stopTime 	450
scalar RSUExampleScenario.node[78].veinsmobility 	minSpeed 	0
scalar RSUExampleScenario.node[78].veinsmobility 	maxSpeed 	13.999633320933
scalar RSUExampleScenario.node[78].veinsmobility 	totalDistance 	558.30670749037
scalar RSUExampleScenario.node[78].veinsmobility 	totalCO2Emission 	363.2641040969
scalar RSUExampleScenario.node[79].appl 	meanClusterNodes 	8.5
scalar RSUExampleScenario.node[79].appl 	meanClusterHeadUtility 	17.505294604392
scalar RSUExampleScenario.node[79].appl 	NumberofCH 	0.054054054054054
scalar RSUExampleScenario.node[79].appl 	NumberofON 	0.45945945945946
scalar RSUExampleScenario.node[79].appl 	NumberofFN 	0.48648648648649
scalar RSUExampleScenario.node[79].veinsmobility 	startTime 	190.4
scalar RSUExampleScenario.node[79].veinsmobility 	totalTime 	259.6
scalar RSUExampleScenario.node[79].veinsmobility 	stopTime 	450
scalar RSUExampleScenario.node[79].veinsmobility 	minSpeed 	0
scalar RSUExampleScenario.node[79].veinsmobility 	maxSpeed 	13.999936332204
scalar RSUExampleScenario.node[79].veinsmobility 	totalDistance 	524.20829109195
scalar RSUExampleScenario.node[79].veinsmobility 	totalCO2Emission 	356.90960211377
scalar RSUExampleScenario.node[8].appl 	meanClusterNodes 	3
scalar RSUExampleScenario.node[8].appl 	meanClusterHeadUtility 	19.240399305645
scalar RSUExampleScenario.node[8].appl 	NumberofCH 	0.054054054054054
scalar RSUExampleScenario.node[8].appl 	NumberofON 	0.27027027027027
scalar RSUExampleScenario.node[8].appl 	NumberofFN 	0.67567567567568
scalar RSUExampleScenario.node[8].veinsmobility 	startTime 	19.3
scalar RSUExampleScenario.node[8].veinsmobility 	totalTime 	430.7
scalar RSUExampleScenario.node[8].veinsmobility 	stopTime 	450
scalar RSUExampleScenario.node[8].veinsmobility 	minSpeed 	0
scalar RSUExampleScenario.node[8].veinsmobility 	maxSpeed 	13.99993935083
scalar RSUExampleScenario.node[8].veinsmobility 	totalDistance 	2856.1095091845
scalar RSUExampleScenario.node[8].veinsmobility 	totalCO2Emission 	775.79846720258
scalar RSUExampleScenario.node[80].appl 	meanClusterNodes 	0
scalar RSUExampleScenario.node[80].appl 	meanClusterHeadUtility 	0
scalar RSUExampleScenario.node[80].appl 	NumberofCH 	0
scalar RSUExampleScenario.node[80].appl 	NumberofON 	0.64864864864865
scalar RSUExampleScenario.node[80].appl 	NumberofFN 	0.35135135135135
scalar RSUExampleScenario.node[80].veinsmobility 	startTime 	192.9
scalar RSUExampleScenario.node[80].veinsmobility 	totalTime 	257.1
scalar RSUExampleScenario.node[80].veinsmobility 	stopTime 	450
scalar RSUExampleScenario.node[80].veinsmobility 	minSpeed 	0
scalar RSUExampleScenario.node[80].veinsmobility 	maxSpeed 	13.999612171452
scalar RSUExampleScenario.node[80].veinsmobility 	totalDistance 	490.71212635621
scalar RSUExampleScenario.node[80].veinsmobility 	totalCO2Emission 	350.24434513414
scalar RSUExampleScenario.node[81].appl 	meanClusterNodes 	8.5
scalar RSUExampleScenario.node[81].appl 	meanClusterHeadUtility 	8.4879743032741
scalar RSUExampleScenario.node[81].appl 	NumberofCH 	0.10810810810811
scalar RSUExampleScenario.node[81].appl 	NumberofON 	0.56756756756757
scalar RSUExampleScenario.node[81].appl 	NumberofFN 	0.32432432432432
scalar RSUExampleScenario.node[81].veinsmobility 	startTime 	195.3
scalar RSUExampleScenario.node[81].veinsmobility 	totalTime 	254.7
scalar RSUExampleScenario.node[81].veinsmobility 	stopTime 	450
scalar RSUExampleScenario.node[81].veinsmobility 	minSpeed 	0
scalar RSUExampleScenario.node[81].veinsmobility 	maxSpeed 	13.999976247381
scalar RSUExampleScenario.node[81].veinsmobility 	totalDistance 	456.23879818981
scalar RSUExampleScenario.node[81].veinsmobility 	totalCO2Emission 	346.25103445275
scalar RSUExampleScenario.node[82].appl 	meanClusterNodes 	0
scalar RSUExampleScenario.node[82].appl 	meanClusterHeadUtility 	0
scalar RSUExampleScenario.node[82].appl 	NumberofCH 	0.054054054054054
scalar RSUExampleScenario.node[82].appl 	NumberofON 	0.59459459459459
scalar RSUExampleScenario.node[82].appl 	NumberofFN 	0.35135135135135
scalar RSUExampleScenario.node[82].veinsmobility 	startTime 	197.7
scalar RSUExampleScenario.node[82].veinsmobility 	totalTime 	252.3
scalar RSUExampleScenario.node[82].veinsmobility 	stopTime 	450
scalar RSUExampleScenario.node[82].veinsmobility 	minSpeed 	0
scalar RSUExampleScenario.node[82].veinsmobility 	maxSpeed 	13.99936528011
scalar RSUExampleScenario.node[82].veinsmobility 	totalDistance 	424.37966604928
scalar RSUExampleScenario.node[82].veinsmobility 	totalCO2Emission 	340.09960368038
scalar RSUExampleScenario.node[83].appl 	meanClusterNodes 	11.5
scalar RSUExampleScenario.node[83].appl 	meanClusterHeadUtility 	18.079194761284
scalar RSUExampleScenario.node[83].appl 	NumberofCH 	0.054054054054054
scalar RSUExampleScenario.node[83].appl 	NumberofON 	0.40540540540541
scalar RSUExampleScenario.node[83].appl 	NumberofFN 	0.54054054054054
scalar RSUExampleScenario.node[83].veinsmobility 	startTime 	200.1
scalar RSUExampleScenario.node[83].veinsmobility 	totalTime 	249.9
scalar RSUExampleScenario.node[83].veinsmobility 	stopTime 	450
scalar RSUExampleScenario.node[83].veinsmobility 	minSpeed 	0
scalar RSUExampleScenario.node[83].veinsmobility 	maxSpeed 	13.99981846462
scalar RSUExampleScenario.node[83].veinsmobility 	totalDistance 	390.6825102918
scalar RSUExampleScenario.node[83].veinsmobility 	totalCO2Emission 	333.61532187144
scalar RSUExampleScenario.node[84].appl 	meanClusterNodes 	4
scalar RSUExampleScenario.node[84].appl 	meanClusterHeadUtility 	17.05795904528
scalar RSUExampleScenario.node[84].appl 	NumberofCH 	0.054054054054054
scalar RSUExampleScenario.node[84].appl 	NumberofON 	0.56756756756757
scalar RSUExampleScenario.node[84].appl 	NumberofFN 	0.37837837837838
scalar RSUExampleScenario.node[84].veinsmobility 	startTime 	202.5
scalar RSUExampleScenario.node[84].veinsmobility 	totalTime 	247.5
scalar RSUExampleScenario.node[84].veinsmobility 	stopTime 	450
scalar RSUExampleScenario.node[84].veinsmobility 	minSpeed 	0
scalar RSUExampleScenario.node[84].veinsmobility 	maxSpeed 	13.998359522957
scalar RSUExampleScenario.node[84].veinsmobility 	totalDistance 	356.59215733882
scalar RSUExampleScenario.node[84].veinsmobility 	totalCO2Emission 	328.76254559611
scalar RSUExampleScenario.node[85].appl 	meanClusterNodes 	10
scalar RSUExampleScenario.node[85].appl 	meanClusterHeadUtility 	18.387055684927
scalar RSUExampleScenario.node[85].appl 	NumberofCH 	0.054054054054054
scalar RSUExampleScenario.node[85].appl 	NumberofON 	0.54054054054054
scalar RSUExampleScenario.node[85].appl 	NumberofFN 	0.40540540540541
scalar RSUExampleScenario.node[85].veinsmobility 	startTime 	204.9
scalar RSUExampleScenario.node[85].veinsmobility 	totalTime 	245.1
scalar RSUExampleScenario.node[85].veinsmobility 	stopTime 	450
scalar RSUExampleScenario.node[85].veinsmobility 	minSpeed 	0
scalar RSUExampleScenario.node[85].veinsmobility 	maxSpeed 	13.99599182864
scalar RSUExampleScenario.node[85].veinsmobility 	totalDistance 	324.40693551535
scalar RSUExampleScenario.node[85].veinsmobility 	totalCO2Emission 	322.90074862405
scalar RSUExampleScenario.node[86].appl 	meanClusterNodes 	3.5
scalar RSUExampleScenario.node[86].appl 	meanClusterHeadUtility 	17.662209571155
scalar RSUExampleScenario.node[86].appl 	NumberofCH 	0.054054054054054
scalar RSUExampleScenario.node[86].appl 	NumberofON 	0.62162162162162
scalar RSUExampleScenario.node[86].appl 	NumberofFN 	0.32432432432432
scalar RSUExampleScenario.node[86].veinsmobility 	startTime 	207.3
scalar RSUExampleScenario.node[86].veinsmobility 	totalTime 	242.7
scalar RSUExampleScenario.node[86].veinsmobility 	stopTime 	450
scalar RSUExampleScenario.node[86].veinsmobility 	minSpeed 	0
scalar RSUExampleScenario.node[86].veinsmobility 	maxSpeed 	13.859520516147
scalar RSUExampleScenario.node[86].veinsmobility 	totalDistance 	290.04859489452
scalar RSUExampleScenario.node[86].veinsmobility 	totalCO2Emission 	316.53755013123
scalar RSUExampleScenario.node[87].appl 	meanClusterNodes 	0
scalar RSUExampleScenario.node[87].appl 	meanClusterHeadUtility 	0
scalar RSUExampleScenario.node[87].appl 	NumberofCH 	0
scalar RSUExampleScenario.node[87].appl 	NumberofON 	0.64864864864865
scalar RSUExampleScenario.node[87].appl 	NumberofFN 	0.35135135135135
scalar RSUExampleScenario.node[87].veinsmobility 	startTime 	209.7
scalar RSUExampleScenario.node[87].veinsmobility 	totalTime 	240.3
scalar RSUExampleScenario.node[87].veinsmobility 	stopTime 	450
scalar RSUExampleScenario.node[87].veinsmobility 	minSpeed 	0
scalar RSUExampleScenario.node[87].veinsmobility 	maxSpeed 	13.799507516983
scalar RSUExampleScenario.node[87].veinsmobility 	totalDistance 	250.7806081755
scalar RSUExampleScenario.node[87].veinsmobility 	totalCO2Emission 	299.14664864941
scalar RSUExampleScenario.node[88].appl 	meanClusterNodes 	6
scalar RSUExampleScenario.node[88].appl 	meanClusterHeadUtility 	10.233517548856
scalar RSUExampleScenario.node[88].appl 	NumberofCH 	0.10810810810811
scalar RSUExampleScenario.node[88].appl 	NumberofON 	0.54054054054054
scalar RSUExampleScenario.node[88].appl 	NumberofFN 	0.35135135135135
scalar RSUExampleScenario.node[88].veinsmobility 	startTime 	212.1
scalar RSUExampleScenario.node[88].veinsmobility 	totalTime 	237.9
scalar RSUExampleScenario.node[88].veinsmobility 	stopTime 	450
scalar RSUExampleScenario.node[88].veinsmobility 	minSpeed 	0
scalar RSUExampleScenario.node[88].veinsmobility 	maxSpeed 	13.780353375308
scalar RSUExampleScenario.node[88].veinsmobility 	totalDistance 	226.1724022707
scalar RSUExampleScenario.node[88].veinsmobility 	totalCO2Emission 	287.00204162941
scalar RSUExampleScenario.node[89].appl 	meanClusterNodes 	13
scalar RSUExampleScenario.node[89].appl 	meanClusterHeadUtility 	37.153860085058
scalar RSUExampleScenario.node[89].appl 	NumberofCH 	0.027027027027027
scalar RSUExampleScenario.node[89].appl 	NumberofON 	0.62162162162162
scalar RSUExampleScenario.node[89].appl 	NumberofFN 	0.35135135135135
scalar RSUExampleScenario.node[89].veinsmobility 	startTime 	214.5
scalar RSUExampleScenario.node[89].veinsmobility 	totalTime 	235.5
scalar RSUExampleScenario.node[89].veinsmobility 	stopTime 	450
scalar RSUExampleScenario.node[89].veinsmobility 	minSpeed 	0
scalar RSUExampleScenario.node[89].veinsmobility 	maxSpeed 	13.887282882726
scalar RSUExampleScenario.node[89].veinsmobility 	totalDistance 	215.61845711822
scalar RSUExampleScenario.node[89].veinsmobility 	totalCO2Emission 	283.18602698702
scalar RSUExampleScenario.node[9].appl 	meanClusterNodes 	4.5
scalar RSUExampleScenario.node[9].appl 	meanClusterHeadUtility 	9.1035073602826
scalar RSUExampleScenario.node[9].appl 	NumberofCH 	0.10810810810811
scalar RSUExampleScenario.node[9].appl 	NumberofON 	0.35135135135135
scalar RSUExampleScenario.node[9].appl 	NumberofFN 	0.54054054054054
scalar RSUExampleScenario.node[9].veinsmobility 	startTime 	21.7
scalar RSUExampleScenario.node[9].veinsmobility 	totalTime 	428.3
scalar RSUExampleScenario.node[9].veinsmobility 	stopTime 	450
scalar RSUExampleScenario.node[9].veinsmobility 	minSpeed 	0
scalar RSUExampleScenario.node[9].veinsmobility 	maxSpeed 	13.999958068673
scalar RSUExampleScenario.node[9].veinsmobility 	totalDistance 	2827.1411462197
scalar RSUExampleScenario.node[9].veinsmobility 	totalCO2Emission 	762.40028568053
scalar RSUExampleScenario.node[90].appl 	meanClusterNodes 	4
scalar RSUExampleScenario.node[90].appl 	meanClusterHeadUtility 	17.255188654357
scalar RSUExampleScenario.node[90].appl 	NumberofCH 	0.054054054054054
scalar RSUExampleScenario.node[90].appl 	NumberofON 	0.43243243243243
scalar RSUExampleScenario.node[90].appl 	NumberofFN 	0.51351351351351
scalar RSUExampleScenario.node[90].veinsmobility 	startTime 	217
scalar RSUExampleScenario.node[90].veinsmobility 	totalTime 	233
scalar RSUExampleScenario.node[90].veinsmobility 	stopTime 	450
scalar RSUExampleScenario.node[90].veinsmobility 	minSpeed 	0
scalar RSUExampleScenario.node[90].veinsmobility 	maxSpeed 	13.808129790006
scalar RSUExampleScenario.node[90].veinsmobility 	totalDistance 	202.23223865907
scalar RSUExampleScenario.node[90].veinsmobility 	totalCO2Emission 	280.01228980021
scalar RSUExampleScenario.node[91].appl 	meanClusterNodes 	3.25
scalar RSUExampleScenario.node[91].appl 	meanClusterHeadUtility 	9.5553975173214
scalar RSUExampleScenario.node[91].appl 	NumberofCH 	0.10810810810811
scalar RSUExampleScenario.node[91].appl 	NumberofON 	0.54054054054054
scalar RSUExampleScenario.node[91].appl 	NumberofFN 	0.35135135135135
scalar RSUExampleScenario.node[91].veinsmobility 	startTime 	219.4
scalar RSUExampleScenario.node[91].veinsmobility 	totalTime 	230.6
scalar RSUExampleScenario.node[91].veinsmobility 	stopTime 	450
scalar RSUExampleScenario.node[91].veinsmobility 	minSpeed 	0
scalar RSUExampleScenario.node[91].veinsmobility 	maxSpeed 	13.848423844383
scalar RSUExampleScenario.node[91].veinsmobility 	totalDistance 	185.52193902625
scalar RSUExampleScenario.node[91].veinsmobility 	totalCO2Emission 	277.13477568464
scalar RSUExampleScenario.node[92].appl 	meanClusterNodes 	5
scalar RSUExampleScenario.node[92].appl 	meanClusterHeadUtility 	18.875526173894
scalar RSUExampleScenario.node[92].appl 	NumberofCH 	0.054054054054054
scalar RSUExampleScenario.node[92].appl 	NumberofON 	0.45945945945946
scalar RSUExampleScenario.node[92].appl 	NumberofFN 	0.48648648648649
scalar RSUExampleScenario.node[92].veinsmobility 	startTime 	221.8
scalar RSUExampleScenario.node[92].veinsmobility 	totalTime 	228.2
scalar RSUExampleScenario.node[92].veinsmobility 	stopTime 	450
scalar RSUExampleScenario.node[92].veinsmobility 	minSpeed 	0
scalar RSUExampleScenario.node[92].veinsmobility 	maxSpeed 	13.886105556048
scalar RSUExampleScenario.node[92].veinsmobility 	totalDistance 	147.84563247025
scalar RSUExampleScenario.node[92].veinsmobility 	totalCO2Emission 	263.16369063033
scalar RSUExampleScenario.node[93].appl 	meanClusterNodes 	4
scalar RSUExampleScenario.node[93].appl 	meanClusterHeadUtility 	9.3579233018598
scalar RSUExampleScenario.node[93].appl 	NumberofCH 	0.10810810810811
scalar RSUExampleScenario.node[93].appl 	NumberofON 	0.2972972972973
scalar RSUExampleScenario.node[93].appl 	NumberofFN 	0.59459459459459
scalar RSUExampleScenario.node[93].veinsmobility 	startTime 	224.2
scalar RSUExampleScenario.node[93].veinsmobility 	totalTime 	225.8
scalar RSUExampleScenario.node[93].veinsmobility 	stopTime 	450
scalar RSUExampleScenario.node[93].veinsmobility 	minSpeed 	0
scalar RSUExampleScenario.node[93].veinsmobility 	maxSpeed 	13.775146977198
scalar RSUExampleScenario.node[93].veinsmobility 	totalDistance 	123.7688395627
scalar RSUExampleScenario.node[93].veinsmobility 	totalCO2Emission 	251.76671666379
scalar RSUExampleScenario.node[94].appl 	meanClusterNodes 	4
scalar RSUExampleScenario.node[94].appl 	meanClusterHeadUtility 	8.8407870353536
scalar RSUExampleScenario.node[94].appl 	NumberofCH 	0.10810810810811
scalar RSUExampleScenario.node[94].appl 	NumberofON 	0.43243243243243
scalar RSUExampleScenario.node[94].appl 	NumberofFN 	0.45945945945946
scalar RSUExampleScenario.node[94].veinsmobility 	startTime 	226.6
scalar RSUExampleScenario.node[94].veinsmobility 	totalTime 	223.4
scalar RSUExampleScenario.node[94].veinsmobility 	stopTime 	450
scalar RSUExampleScenario.node[94].veinsmobility 	minSpeed 	0
scalar RSUExampleScenario.node[94].veinsmobility 	maxSpeed 	13.825550405964
scalar RSUExampleScenario.node[94].veinsmobility 	totalDistance 	112.18510423746
scalar RSUExampleScenario.node[94].veinsmobility 	totalCO2Emission 	245.90109109801
scalar RSUExampleScenario.node[95].appl 	meanClusterNodes 	1.5
scalar RSUExampleScenario.node[95].appl 	meanClusterHeadUtility 	15.429203077621
scalar RSUExampleScenario.node[95].appl 	NumberofCH 	0.054054054054054
scalar RSUExampleScenario.node[95].appl 	NumberofON 	0.51351351351351
scalar RSUExampleScenario.node[95].appl 	NumberofFN 	0.43243243243243
scalar RSUExampleScenario.node[95].veinsmobility 	startTime 	229
scalar RSUExampleScenario.node[95].veinsmobility 	totalTime 	221
scalar RSUExampleScenario.node[95].veinsmobility 	stopTime 	450
scalar RSUExampleScenario.node[95].veinsmobility 	minSpeed 	0
scalar RSUExampleScenario.node[95].veinsmobility 	maxSpeed 	13.770962526673
scalar RSUExampleScenario.node[95].veinsmobility 	totalDistance 	99.361771902657
scalar RSUExampleScenario.node[95].veinsmobility 	totalCO2Emission 	242.24000294761
scalar RSUExampleScenario.node[96].appl 	meanClusterNodes 	5
scalar RSUExampleScenario.node[96].appl 	meanClusterHeadUtility 	20.038449413947
scalar RSUExampleScenario.node[96].appl 	NumberofCH 	0.054054054054054
scalar RSUExampleScenario.node[96].appl 	NumberofON 	0.45945945945946
scalar RSUExampleScenario.node[96].appl 	NumberofFN 	0.48648648648649
scalar RSUExampleScenario.node[96].veinsmobility 	startTime 	231.4
scalar RSUExampleScenario.node[96].veinsmobility 	totalTime 	218.6
scalar RSUExampleScenario.node[96].veinsmobility 	stopTime 	450
scalar RSUExampleScenario.node[96].veinsmobility 	minSpeed 	0
scalar RSUExampleScenario.node[96].veinsmobility 	maxSpeed 	13.838731700792
scalar RSUExampleScenario.node[96].veinsmobility 	totalDistance 	83.296880208198
scalar RSUExampleScenario.node[96].veinsmobility 	totalCO2Emission 	239.81747846166
scalar RSUExampleScenario.node[97].appl 	meanClusterNodes 	7.5
scalar RSUExampleScenario.node[97].appl 	meanClusterHeadUtility 	9.2182852304391
scalar RSUExampleScenario.node[97].appl 	NumberofCH 	0.10810810810811
scalar RSUExampleScenario.node[97].appl 	NumberofON 	0.24324324324324
scalar RSUExampleScenario.node[97].appl 	NumberofFN 	0.64864864864865
scalar RSUExampleScenario.node[97].veinsmobility 	startTime 	233.8
scalar RSUExampleScenario.node[97].veinsmobility 	totalTime 	216.2
scalar RSUExampleScenario.node[97].veinsmobility 	stopTime 	450
scalar RSUExampleScenario.node[97].veinsmobility 	minSpeed 	0
scalar RSUExampleScenario.node[97].veinsmobility 	maxSpeed 	12.495148966911
scalar RSUExampleScenario.node[97].veinsmobility 	totalDistance 	56.632255618801
scalar RSUExampleScenario.node[97].veinsmobility 	totalCO2Emission 	232.4231444413
scalar RSUExampleScenario.node[98].appl 	meanClusterNodes 	6.5
scalar RSUExampleScenario.node[98].appl 	meanClusterHeadUtility 	8.0356587589328
scalar RSUExampleScenario.node[98].appl 	NumberofCH 	0.10810810810811
scalar RSUExampleScenario.node[98].appl 	NumberofON 	0.40540540540541
scalar RSUExampleScenario.node[98].appl 	NumberofFN 	0.48648648648649
scalar RSUExampleScenario.node[98].veinsmobility 	startTime 	236.2
scalar RSUExampleScenario.node[98].veinsmobility 	totalTime 	213.8
scalar RSUExampleScenario.node[98].veinsmobility 	stopTime 	450
scalar RSUExampleScenario.node[98].veinsmobility 	minSpeed 	0
scalar RSUExampleScenario.node[98].veinsmobility 	maxSpeed 	7.5385638339309
scalar RSUExampleScenario.node[98].veinsmobility 	totalDistance 	21.508911864052
scalar RSUExampleScenario.node[98].veinsmobility 	totalCO2Emission 	216.25123153493
scalar RSUExampleScenario.node[99].appl 	meanClusterNodes 	2.75
scalar RSUExampleScenario.node[99].appl 	meanClusterHeadUtility 	8.9947963811348
scalar RSUExampleScenario.node[99].appl 	NumberofCH 	0.10810810810811
scalar RSUExampleScenario.node[99].appl 	NumberofON 	0.59459459459459
scalar RSUExampleScenario.node[99].appl 	NumberofFN 	0.2972972972973
scalar RSUExampleScenario.node[99].veinsmobility 	startTime 	238.6
scalar RSUExampleScenario.node[99].veinsmobility 	totalTime 	211.4
scalar RSUExampleScenario.node[99].veinsmobility 	stopTime 	450
scalar RSUExampleScenario.node[99].veinsmobility 	minSpeed 	0
scalar RSUExampleScenario.node[99].veinsmobility 	maxSpeed 	2.905180067584
scalar RSUExampleScenario.node[99].veinsmobility 	totalDistance 	3.13776659149
scalar RSUExampleScenario.node[99].veinsmobility 	totalCO2Emission 	206.96317962291
