version 2
run statistic-43-20150305-22:03:43-10216
attr c 9
attr configname statistic
attr datetime 20150305-22:03:43
attr experiment statistic
attr inifile omnetpp.ini
attr iterationvars "$p=1/10, $c=9"
attr iterationvars2 "$p=1/10, $c=9, $repetition=43"
attr measurement "$p=1/10, $c=9"
attr network RSUExampleScenario
attr p 1/10
attr processid 10216
attr repetition 43
attr replication #43
attr resultdir results
attr runnumber 43
attr seedset 43

scalar . 	c 	9
scalar RSUExampleScenario.rsu[0].appl 	NumberofCH 	10
scalar RSUExampleScenario.rsu[0].appl 	NumberofON 	85
scalar RSUExampleScenario.rsu[0].appl 	NumberofFN 	5
scalar RSUExampleScenario.rsu[0].appl 	meanClusterNodes 	8.5
scalar RSUExampleScenario.rsu[0].appl 	varClusterNodes 	0.80622577482986
scalar RSUExampleScenario.rsu[0].appl 	GSScycles 	4
