version 2
run statistic7-573-20150316-05:52:36-7576
attr c 6
attr configname statistic7
attr datetime 20150316-05:52:36
attr experiment statistic7
attr inifile omnetpp.ini
attr iterationvars "$p=1/2, $c=6"
attr iterationvars2 "$p=1/2, $c=6, $repetition=73"
attr measurement "$p=1/2, $c=6"
attr network RSUExampleScenario
attr p 1/2
attr processid 7576
attr repetition 73
attr replication #73
attr resultdir results
attr runnumber 573
attr seedset 573

scalar . 	c 	6
scalar RSUExampleScenario.rsu[0].appl 	NumberofCH 	50
scalar RSUExampleScenario.rsu[0].appl 	NumberofON 	50
scalar RSUExampleScenario.rsu[0].appl 	NumberofFN 	0
scalar RSUExampleScenario.rsu[0].appl 	meanClusterNodes 	50
scalar RSUExampleScenario.rsu[0].appl 	varClusterNodes 	7.0710678118655
scalar RSUExampleScenario.rsu[0].appl 	sumCHutility 	1316.2974243524
scalar RSUExampleScenario.rsu[0].appl 	meanCHutility 	50
scalar RSUExampleScenario.rsu[0].appl 	varCHutility 	7.0710678118655
scalar RSUExampleScenario.rsu[0].appl 	sumDiffCHutility 	391.28486937544
scalar RSUExampleScenario.rsu[0].appl 	meanDiffCHutility 	50
scalar RSUExampleScenario.rsu[0].appl 	varDiffCHutility 	7.0710678118655
scalar RSUExampleScenario.rsu[0].appl 	expectedCHutility 	1707.5822937278
scalar RSUExampleScenario.rsu[0].appl 	meanExpectedCHutility 	50
scalar RSUExampleScenario.rsu[0].appl 	varExpectedCHutility 	7.0710678118655
