version 2
run statistic-345-20150312-18:23:42-18880
attr c 22
attr configname statistic
attr datetime 20150312-18:23:42
attr experiment statistic
attr inifile omnetpp.ini
attr iterationvars "$p=1/20, $c=22"
attr iterationvars2 "$p=1/20, $c=22, $repetition=45"
attr measurement "$p=1/20, $c=22"
attr network RSUExampleScenario
attr p 1/20
attr processid 18880
attr repetition 45
attr replication #45
attr resultdir results
attr runnumber 345
attr seedset 345

scalar . 	c 	22
scalar RSUExampleScenario.rsu[0].appl 	NumberofCH 	5
scalar RSUExampleScenario.rsu[0].appl 	NumberofON 	83
scalar RSUExampleScenario.rsu[0].appl 	NumberofFN 	12
scalar RSUExampleScenario.rsu[0].appl 	meanClusterNodes 	5
scalar RSUExampleScenario.rsu[0].appl 	varClusterNodes 	2.2360679774998
scalar RSUExampleScenario.rsu[0].appl 	sumCHutility 	178.54374576196
scalar RSUExampleScenario.rsu[0].appl 	meanCHutility 	5
scalar RSUExampleScenario.rsu[0].appl 	varCHutility 	2.2360679774998
scalar RSUExampleScenario.rsu[0].appl 	sumDiffCHutility 	-7.0400579138004
scalar RSUExampleScenario.rsu[0].appl 	meanDiffCHutility 	5
scalar RSUExampleScenario.rsu[0].appl 	varDiffCHutility 	2.2360679774998
scalar RSUExampleScenario.rsu[0].appl 	expectedCHutility 	171.50368784816
scalar RSUExampleScenario.rsu[0].appl 	meanExpectedCHutility 	5
scalar RSUExampleScenario.rsu[0].appl 	varExpectedCHutility 	2.2360679774998
