version 2
run statistic1-347-20150314-04:40:44-28668
attr c 22
attr configname statistic1
attr datetime 20150314-04:40:44
attr experiment statistic1
attr inifile omnetpp.ini
attr iterationvars "$p=1/20, $c=22"
attr iterationvars2 "$p=1/20, $c=22, $repetition=47"
attr measurement "$p=1/20, $c=22"
attr network RSUExampleScenario
attr p 1/20
attr processid 28668
attr repetition 47
attr replication #47
attr resultdir results
attr runnumber 347
attr seedset 347

scalar . 	c 	22
scalar RSUExampleScenario.rsu[0].appl 	NumberofCH 	5
scalar RSUExampleScenario.rsu[0].appl 	NumberofON 	85
scalar RSUExampleScenario.rsu[0].appl 	NumberofFN 	10
scalar RSUExampleScenario.rsu[0].appl 	meanClusterNodes 	5
scalar RSUExampleScenario.rsu[0].appl 	varClusterNodes 	2.2360679774998
scalar RSUExampleScenario.rsu[0].appl 	sumCHutility 	176.37318402498
scalar RSUExampleScenario.rsu[0].appl 	meanCHutility 	5
scalar RSUExampleScenario.rsu[0].appl 	varCHutility 	2.2360679774998
scalar RSUExampleScenario.rsu[0].appl 	sumDiffCHutility 	-4.421440479657
scalar RSUExampleScenario.rsu[0].appl 	meanDiffCHutility 	5
scalar RSUExampleScenario.rsu[0].appl 	varDiffCHutility 	2.2360679774998
scalar RSUExampleScenario.rsu[0].appl 	expectedCHutility 	171.95174354532
scalar RSUExampleScenario.rsu[0].appl 	meanExpectedCHutility 	5
scalar RSUExampleScenario.rsu[0].appl 	varExpectedCHutility 	2.2360679774998
