version 2
run statistic-2656-20150311-11:38:34-9064
attr c 9
attr configname statistic
attr datetime 20150311-11:38:34
attr experiment statistic
attr inifile omnetpp.ini
attr iterationvars "$p=1/5, $c=9"
attr iterationvars2 "$p=1/5, $c=9, $repetition=56"
attr measurement "$p=1/5, $c=9"
attr network RSUExampleScenario
attr p 1/5
attr processid 9064
attr repetition 56
attr replication #56
attr resultdir results
attr runnumber 2656
attr seedset 2656

scalar . 	c 	9
scalar RSUExampleScenario.rsu[0].appl 	NumberofCH 	29
scalar RSUExampleScenario.rsu[0].appl 	NumberofON 	71
scalar RSUExampleScenario.rsu[0].appl 	NumberofFN 	0
scalar RSUExampleScenario.rsu[0].appl 	meanClusterNodes 	2.448275862069
scalar RSUExampleScenario.rsu[0].appl 	varClusterNodes 	1.9928528657655
scalar RSUExampleScenario.rsu[0].appl 	sumCHutility 	nan
scalar RSUExampleScenario.rsu[0].appl 	meanCHutility 	nan
scalar RSUExampleScenario.rsu[0].appl 	varCHutility 	nan
scalar RSUExampleScenario.rsu[0].appl 	sumDiffCHutility 	-27231.805301438
scalar RSUExampleScenario.rsu[0].appl 	meanDiffCHutility 	-939.02776901511
scalar RSUExampleScenario.rsu[0].appl 	varDiffCHutility 	766.68211181916
scalar RSUExampleScenario.rsu[0].appl 	expectedCHutility 	989.79288980806
scalar RSUExampleScenario.rsu[0].appl 	meanExpectedCHutility 	34.130789303726
scalar RSUExampleScenario.rsu[0].appl 	varExpectedCHutility 	3.1214528659744
