version 2
run statisticRVV-147-20150327-08:20:52-16020
attr c 16
attr configname statisticRVV
attr datetime 20150327-08:20:52
attr experiment statisticRVV
attr inifile omnetpp.ini
attr iterationvars "$sc=\"erlangen-medium.launchd.xml\", $p=1/15, $c=16"
attr iterationvars2 "$sc=\"erlangen-medium.launchd.xml\", $p=1/15, $c=16, $repetition=7"
attr measurement "$sc=\"erlangen-medium.launchd.xml\", $p=1/15, $c=16"
attr network RSUExampleScenario
attr p 1/15
attr processid 16020
attr repetition 7
attr replication #7
attr resultdir results
attr runnumber 147
attr sc "\"erlangen-medium.launchd.xml\""
attr seedset 147

scalar . 	c 	16
scalar RSUExampleScenario.node[0].veinsmobility 	startTime 	0.1
scalar RSUExampleScenario.node[0].veinsmobility 	totalTime 	264.3
scalar RSUExampleScenario.node[0].veinsmobility 	stopTime 	264.5
scalar RSUExampleScenario.node[0].veinsmobility 	minSpeed 	0.25523295754986
scalar RSUExampleScenario.node[0].veinsmobility 	maxSpeed 	13.999965135066
scalar RSUExampleScenario.node[0].veinsmobility 	totalDistance 	3409.5925295864
scalar RSUExampleScenario.node[0].veinsmobility 	totalCO2Emission 	691.3477520904
scalar RSUExampleScenario.node[1].veinsmobility 	startTime 	3.1
scalar RSUExampleScenario.node[1].veinsmobility 	totalTime 	265.4
scalar RSUExampleScenario.node[1].veinsmobility 	stopTime 	268.6
scalar RSUExampleScenario.node[1].veinsmobility 	minSpeed 	0.25441150890524
scalar RSUExampleScenario.node[1].veinsmobility 	maxSpeed 	13.999985127342
scalar RSUExampleScenario.node[1].veinsmobility 	totalDistance 	3409.3125364399
scalar RSUExampleScenario.node[1].veinsmobility 	totalCO2Emission 	692.43876154201
scalar RSUExampleScenario.node[2].veinsmobility 	startTime 	6.1
scalar RSUExampleScenario.node[2].veinsmobility 	totalTime 	266
scalar RSUExampleScenario.node[2].veinsmobility 	stopTime 	272.2
scalar RSUExampleScenario.node[2].veinsmobility 	minSpeed 	0.25905925058806
scalar RSUExampleScenario.node[2].veinsmobility 	maxSpeed 	13.999854427979
scalar RSUExampleScenario.node[2].veinsmobility 	totalDistance 	3409.2174815665
scalar RSUExampleScenario.node[2].veinsmobility 	totalCO2Emission 	689.76662895697
scalar RSUExampleScenario.node[3].veinsmobility 	startTime 	9.1
scalar RSUExampleScenario.node[3].veinsmobility 	totalTime 	266.4
scalar RSUExampleScenario.node[3].veinsmobility 	stopTime 	275.6
scalar RSUExampleScenario.node[3].veinsmobility 	minSpeed 	0.25085372918868
scalar RSUExampleScenario.node[3].veinsmobility 	maxSpeed 	13.99993616458
scalar RSUExampleScenario.node[3].veinsmobility 	totalDistance 	3409.3540031043
scalar RSUExampleScenario.node[3].veinsmobility 	totalCO2Emission 	693.60749236031
scalar RSUExampleScenario.node[4].veinsmobility 	startTime 	12.1
scalar RSUExampleScenario.node[4].veinsmobility 	totalTime 	266.7
scalar RSUExampleScenario.node[4].veinsmobility 	stopTime 	278.9
scalar RSUExampleScenario.node[4].veinsmobility 	minSpeed 	0.25423590135248
scalar RSUExampleScenario.node[4].veinsmobility 	maxSpeed 	13.999976477993
scalar RSUExampleScenario.node[4].veinsmobility 	totalDistance 	3413.470821932
scalar RSUExampleScenario.node[4].veinsmobility 	totalCO2Emission 	693.27638121958
scalar RSUExampleScenario.node[5].veinsmobility 	startTime 	15.1
scalar RSUExampleScenario.node[5].veinsmobility 	totalTime 	266.8
scalar RSUExampleScenario.node[5].veinsmobility 	stopTime 	282
scalar RSUExampleScenario.node[5].veinsmobility 	minSpeed 	0.25206468341523
scalar RSUExampleScenario.node[5].veinsmobility 	maxSpeed 	13.999954439087
scalar RSUExampleScenario.node[5].veinsmobility 	totalDistance 	3409.5546439802
scalar RSUExampleScenario.node[5].veinsmobility 	totalCO2Emission 	690.79015634189
scalar RSUExampleScenario.node[6].veinsmobility 	startTime 	18.1
scalar RSUExampleScenario.node[6].veinsmobility 	totalTime 	266.9
scalar RSUExampleScenario.node[6].veinsmobility 	stopTime 	285.1
scalar RSUExampleScenario.node[6].veinsmobility 	minSpeed 	0.25209932931466
scalar RSUExampleScenario.node[6].veinsmobility 	maxSpeed 	13.999913198052
scalar RSUExampleScenario.node[6].veinsmobility 	totalDistance 	3413.4121696002
scalar RSUExampleScenario.node[6].veinsmobility 	totalCO2Emission 	693.34018308495
scalar RSUExampleScenario.node[7].veinsmobility 	startTime 	21.1
scalar RSUExampleScenario.node[7].veinsmobility 	totalTime 	267
scalar RSUExampleScenario.node[7].veinsmobility 	stopTime 	288.2
scalar RSUExampleScenario.node[7].veinsmobility 	minSpeed 	0.2585401050467
scalar RSUExampleScenario.node[7].veinsmobility 	maxSpeed 	13.999957878166
scalar RSUExampleScenario.node[7].veinsmobility 	totalDistance 	3409.1702168264
scalar RSUExampleScenario.node[7].veinsmobility 	totalCO2Emission 	691.91466805692
scalar RSUExampleScenario.node[8].veinsmobility 	startTime 	24.1
scalar RSUExampleScenario.node[8].veinsmobility 	totalTime 	267.1
scalar RSUExampleScenario.node[8].veinsmobility 	stopTime 	291.3
scalar RSUExampleScenario.node[8].veinsmobility 	minSpeed 	0.25818629745208
scalar RSUExampleScenario.node[8].veinsmobility 	maxSpeed 	13.999963105083
scalar RSUExampleScenario.node[8].veinsmobility 	totalDistance 	3413.4995801971
scalar RSUExampleScenario.node[8].veinsmobility 	totalCO2Emission 	691.7620385848
scalar RSUExampleScenario.node[9].veinsmobility 	startTime 	27.1
scalar RSUExampleScenario.node[9].veinsmobility 	totalTime 	267.1
scalar RSUExampleScenario.node[9].veinsmobility 	stopTime 	294.3
scalar RSUExampleScenario.node[9].veinsmobility 	minSpeed 	0.24888858540938
scalar RSUExampleScenario.node[9].veinsmobility 	maxSpeed 	13.999986332583
scalar RSUExampleScenario.node[9].veinsmobility 	totalDistance 	3409.3652063633
scalar RSUExampleScenario.node[9].veinsmobility 	totalCO2Emission 	690.55478442539
scalar RSUExampleScenario.node[10].veinsmobility 	startTime 	30.1
scalar RSUExampleScenario.node[10].veinsmobility 	totalTime 	267.1
scalar RSUExampleScenario.node[10].veinsmobility 	stopTime 	297.3
scalar RSUExampleScenario.node[10].veinsmobility 	minSpeed 	0.25609689056338
scalar RSUExampleScenario.node[10].veinsmobility 	maxSpeed 	13.999987486156
scalar RSUExampleScenario.node[10].veinsmobility 	totalDistance 	3413.5063370123
scalar RSUExampleScenario.node[10].veinsmobility 	totalCO2Emission 	691.420745608
scalar RSUExampleScenario.node[11].veinsmobility 	startTime 	33.1
scalar RSUExampleScenario.node[11].veinsmobility 	totalTime 	267.1
scalar RSUExampleScenario.node[11].veinsmobility 	stopTime 	300.3
scalar RSUExampleScenario.node[11].veinsmobility 	minSpeed 	0.2573218175869
scalar RSUExampleScenario.node[11].veinsmobility 	maxSpeed 	13.999987360665
scalar RSUExampleScenario.node[11].veinsmobility 	totalDistance 	3409.4243686416
scalar RSUExampleScenario.node[11].veinsmobility 	totalCO2Emission 	692.27340147369
scalar RSUExampleScenario.node[12].veinsmobility 	startTime 	36.1
scalar RSUExampleScenario.node[12].veinsmobility 	totalTime 	267.1
scalar RSUExampleScenario.node[12].veinsmobility 	stopTime 	303.3
scalar RSUExampleScenario.node[12].veinsmobility 	minSpeed 	0.25916375354398
scalar RSUExampleScenario.node[12].veinsmobility 	maxSpeed 	13.999992302428
scalar RSUExampleScenario.node[12].veinsmobility 	totalDistance 	3413.5280608707
scalar RSUExampleScenario.node[12].veinsmobility 	totalCO2Emission 	693.6637314953
scalar RSUExampleScenario.node[13].veinsmobility 	startTime 	39.1
scalar RSUExampleScenario.node[13].veinsmobility 	totalTime 	267.1
scalar RSUExampleScenario.node[13].veinsmobility 	stopTime 	306.3
scalar RSUExampleScenario.node[13].veinsmobility 	minSpeed 	0.2508172392305
scalar RSUExampleScenario.node[13].veinsmobility 	maxSpeed 	13.999981963339
scalar RSUExampleScenario.node[13].veinsmobility 	totalDistance 	3409.5025000683
scalar RSUExampleScenario.node[13].veinsmobility 	totalCO2Emission 	692.7221647866
scalar RSUExampleScenario.node[14].veinsmobility 	startTime 	42.1
scalar RSUExampleScenario.node[14].veinsmobility 	totalTime 	267.2
scalar RSUExampleScenario.node[14].veinsmobility 	stopTime 	309.4
scalar RSUExampleScenario.node[14].veinsmobility 	minSpeed 	0.24873001478449
scalar RSUExampleScenario.node[14].veinsmobility 	maxSpeed 	13.999869617845
scalar RSUExampleScenario.node[14].veinsmobility 	totalDistance 	3413.7346557862
scalar RSUExampleScenario.node[14].veinsmobility 	totalCO2Emission 	695.62658534473
scalar RSUExampleScenario.node[15].veinsmobility 	startTime 	45.1
scalar RSUExampleScenario.node[15].veinsmobility 	totalTime 	267.2
scalar RSUExampleScenario.node[15].veinsmobility 	stopTime 	312.4
scalar RSUExampleScenario.node[15].veinsmobility 	minSpeed 	0.25629641662748
scalar RSUExampleScenario.node[15].veinsmobility 	maxSpeed 	13.999996722008
scalar RSUExampleScenario.node[15].veinsmobility 	totalDistance 	3409.6035094215
scalar RSUExampleScenario.node[15].veinsmobility 	totalCO2Emission 	689.34068309935
scalar RSUExampleScenario.node[16].veinsmobility 	startTime 	48.1
scalar RSUExampleScenario.node[16].veinsmobility 	totalTime 	267.2
scalar RSUExampleScenario.node[16].veinsmobility 	stopTime 	315.4
scalar RSUExampleScenario.node[16].veinsmobility 	minSpeed 	0.25136532712076
scalar RSUExampleScenario.node[16].veinsmobility 	maxSpeed 	13.999987699727
scalar RSUExampleScenario.node[16].veinsmobility 	totalDistance 	3410.0858270167
scalar RSUExampleScenario.node[16].veinsmobility 	totalCO2Emission 	692.51045686458
scalar RSUExampleScenario.node[17].veinsmobility 	startTime 	51.1
scalar RSUExampleScenario.node[17].veinsmobility 	totalTime 	267.2
scalar RSUExampleScenario.node[17].veinsmobility 	stopTime 	318.4
scalar RSUExampleScenario.node[17].veinsmobility 	minSpeed 	0.25235695463722
scalar RSUExampleScenario.node[17].veinsmobility 	maxSpeed 	13.999863774187
scalar RSUExampleScenario.node[17].veinsmobility 	totalDistance 	3413.7206304971
scalar RSUExampleScenario.node[17].veinsmobility 	totalCO2Emission 	695.35367683234
scalar RSUExampleScenario.node[18].veinsmobility 	startTime 	54.1
scalar RSUExampleScenario.node[18].veinsmobility 	totalTime 	267.2
scalar RSUExampleScenario.node[18].veinsmobility 	stopTime 	321.4
scalar RSUExampleScenario.node[18].veinsmobility 	minSpeed 	0.24941363195446
scalar RSUExampleScenario.node[18].veinsmobility 	maxSpeed 	13.999999360619
scalar RSUExampleScenario.node[18].veinsmobility 	totalDistance 	3409.8581463457
scalar RSUExampleScenario.node[18].veinsmobility 	totalCO2Emission 	690.7806285633
scalar RSUExampleScenario.node[19].veinsmobility 	startTime 	57.1
scalar RSUExampleScenario.node[19].veinsmobility 	totalTime 	267.2
scalar RSUExampleScenario.node[19].veinsmobility 	stopTime 	324.4
scalar RSUExampleScenario.node[19].veinsmobility 	minSpeed 	0.24947614698182
scalar RSUExampleScenario.node[19].veinsmobility 	maxSpeed 	13.999972482377
scalar RSUExampleScenario.node[19].veinsmobility 	totalDistance 	3410.0180380046
scalar RSUExampleScenario.node[19].veinsmobility 	totalCO2Emission 	690.39012443936
scalar RSUExampleScenario.node[20].veinsmobility 	startTime 	60.1
scalar RSUExampleScenario.node[20].veinsmobility 	totalTime 	267.3
scalar RSUExampleScenario.node[20].veinsmobility 	stopTime 	327.5
scalar RSUExampleScenario.node[20].veinsmobility 	minSpeed 	0.25886411688663
scalar RSUExampleScenario.node[20].veinsmobility 	maxSpeed 	13.999981674794
scalar RSUExampleScenario.node[20].veinsmobility 	totalDistance 	3413.4916071752
scalar RSUExampleScenario.node[20].veinsmobility 	totalCO2Emission 	689.96938317532
scalar RSUExampleScenario.node[21].veinsmobility 	startTime 	63.1
scalar RSUExampleScenario.node[21].veinsmobility 	totalTime 	267.3
scalar RSUExampleScenario.node[21].veinsmobility 	stopTime 	330.5
scalar RSUExampleScenario.node[21].veinsmobility 	minSpeed 	0.25289858367573
scalar RSUExampleScenario.node[21].veinsmobility 	maxSpeed 	13.999986764174
scalar RSUExampleScenario.node[21].veinsmobility 	totalDistance 	3409.2612039542
scalar RSUExampleScenario.node[21].veinsmobility 	totalCO2Emission 	689.03091832752
scalar RSUExampleScenario.node[22].veinsmobility 	startTime 	66.1
scalar RSUExampleScenario.node[22].veinsmobility 	totalTime 	267.3
scalar RSUExampleScenario.node[22].veinsmobility 	stopTime 	333.5
scalar RSUExampleScenario.node[22].veinsmobility 	minSpeed 	0.2546527577776
scalar RSUExampleScenario.node[22].veinsmobility 	maxSpeed 	13.999999694959
scalar RSUExampleScenario.node[22].veinsmobility 	totalDistance 	3413.4269739479
scalar RSUExampleScenario.node[22].veinsmobility 	totalCO2Emission 	688.566200828
scalar RSUExampleScenario.node[23].veinsmobility 	startTime 	69.1
scalar RSUExampleScenario.node[23].veinsmobility 	totalTime 	267.4
scalar RSUExampleScenario.node[23].veinsmobility 	stopTime 	336.6
scalar RSUExampleScenario.node[23].veinsmobility 	minSpeed 	0.2545014456755
scalar RSUExampleScenario.node[23].veinsmobility 	maxSpeed 	13.99998803888
scalar RSUExampleScenario.node[23].veinsmobility 	totalDistance 	3410.1204863251
scalar RSUExampleScenario.node[23].veinsmobility 	totalCO2Emission 	688.75424972365
scalar RSUExampleScenario.node[24].veinsmobility 	startTime 	72.1
scalar RSUExampleScenario.node[24].veinsmobility 	totalTime 	267.5
scalar RSUExampleScenario.node[24].veinsmobility 	stopTime 	339.7
scalar RSUExampleScenario.node[24].veinsmobility 	minSpeed 	0.24714828788559
scalar RSUExampleScenario.node[24].veinsmobility 	maxSpeed 	13.99997526237
scalar RSUExampleScenario.node[24].veinsmobility 	totalDistance 	3409.7345930729
scalar RSUExampleScenario.node[24].veinsmobility 	totalCO2Emission 	692.94646429528
scalar RSUExampleScenario.node[25].veinsmobility 	startTime 	75.1
scalar RSUExampleScenario.node[25].veinsmobility 	totalTime 	267.6
scalar RSUExampleScenario.node[25].veinsmobility 	stopTime 	342.8
scalar RSUExampleScenario.node[25].veinsmobility 	minSpeed 	0.25098199160374
scalar RSUExampleScenario.node[25].veinsmobility 	maxSpeed 	13.999877344959
scalar RSUExampleScenario.node[25].veinsmobility 	totalDistance 	3413.5914055359
scalar RSUExampleScenario.node[25].veinsmobility 	totalCO2Emission 	690.11789499387
scalar RSUExampleScenario.node[26].veinsmobility 	startTime 	78.1
scalar RSUExampleScenario.node[26].veinsmobility 	totalTime 	267.8
scalar RSUExampleScenario.node[26].veinsmobility 	stopTime 	346
scalar RSUExampleScenario.node[26].veinsmobility 	minSpeed 	0.25410576273105
scalar RSUExampleScenario.node[26].veinsmobility 	maxSpeed 	13.999985270207
scalar RSUExampleScenario.node[26].veinsmobility 	totalDistance 	3410.1031133619
scalar RSUExampleScenario.node[26].veinsmobility 	totalCO2Emission 	693.68752527683
scalar RSUExampleScenario.node[27].veinsmobility 	startTime 	81.1
scalar RSUExampleScenario.node[27].veinsmobility 	totalTime 	268
scalar RSUExampleScenario.node[27].veinsmobility 	stopTime 	349.2
scalar RSUExampleScenario.node[27].veinsmobility 	minSpeed 	0.24886619190499
scalar RSUExampleScenario.node[27].veinsmobility 	maxSpeed 	13.999984899999
scalar RSUExampleScenario.node[27].veinsmobility 	totalDistance 	3414.2516585947
scalar RSUExampleScenario.node[27].veinsmobility 	totalCO2Emission 	694.29519133887
scalar RSUExampleScenario.node[28].veinsmobility 	startTime 	84.1
scalar RSUExampleScenario.node[28].veinsmobility 	totalTime 	268.2
scalar RSUExampleScenario.node[28].veinsmobility 	stopTime 	352.4
scalar RSUExampleScenario.node[28].veinsmobility 	minSpeed 	0.2581628310536
scalar RSUExampleScenario.node[28].veinsmobility 	maxSpeed 	13.999926988538
scalar RSUExampleScenario.node[28].veinsmobility 	totalDistance 	3409.9705918256
scalar RSUExampleScenario.node[28].veinsmobility 	totalCO2Emission 	690.35613846859
scalar RSUExampleScenario.node[29].veinsmobility 	startTime 	87.1
scalar RSUExampleScenario.node[29].veinsmobility 	totalTime 	268.5
scalar RSUExampleScenario.node[29].veinsmobility 	stopTime 	355.7
scalar RSUExampleScenario.node[29].veinsmobility 	minSpeed 	0.25424756917288
scalar RSUExampleScenario.node[29].veinsmobility 	maxSpeed 	13.999892458187
scalar RSUExampleScenario.node[29].veinsmobility 	totalDistance 	3414.1071600335
scalar RSUExampleScenario.node[29].veinsmobility 	totalCO2Emission 	690.32996943164
scalar RSUExampleScenario.node[30].veinsmobility 	startTime 	90.1
scalar RSUExampleScenario.node[30].veinsmobility 	totalTime 	268.8
scalar RSUExampleScenario.node[30].veinsmobility 	stopTime 	359
scalar RSUExampleScenario.node[30].veinsmobility 	minSpeed 	0.25385349956946
scalar RSUExampleScenario.node[30].veinsmobility 	maxSpeed 	13.999892338356
scalar RSUExampleScenario.node[30].veinsmobility 	totalDistance 	3409.4809360371
scalar RSUExampleScenario.node[30].veinsmobility 	totalCO2Emission 	689.1041107682
scalar RSUExampleScenario.node[31].veinsmobility 	startTime 	93.1
scalar RSUExampleScenario.node[31].veinsmobility 	totalTime 	269.2
scalar RSUExampleScenario.node[31].veinsmobility 	stopTime 	362.4
scalar RSUExampleScenario.node[31].veinsmobility 	minSpeed 	0.24851675993484
scalar RSUExampleScenario.node[31].veinsmobility 	maxSpeed 	13.99988500406
scalar RSUExampleScenario.node[31].veinsmobility 	totalDistance 	3414.0187909166
scalar RSUExampleScenario.node[31].veinsmobility 	totalCO2Emission 	691.59631958024
scalar RSUExampleScenario.node[32].veinsmobility 	startTime 	96.1
scalar RSUExampleScenario.node[32].veinsmobility 	totalTime 	269.6
scalar RSUExampleScenario.node[32].veinsmobility 	stopTime 	365.8
scalar RSUExampleScenario.node[32].veinsmobility 	minSpeed 	0.25894358446985
scalar RSUExampleScenario.node[32].veinsmobility 	maxSpeed 	13.999813319214
scalar RSUExampleScenario.node[32].veinsmobility 	totalDistance 	3410.0672733952
scalar RSUExampleScenario.node[32].veinsmobility 	totalCO2Emission 	689.89551451038
scalar RSUExampleScenario.node[33].veinsmobility 	startTime 	99.1
scalar RSUExampleScenario.node[33].veinsmobility 	totalTime 	270.1
scalar RSUExampleScenario.node[33].veinsmobility 	stopTime 	369.3
scalar RSUExampleScenario.node[33].veinsmobility 	minSpeed 	0.25966554178903
scalar RSUExampleScenario.node[33].veinsmobility 	maxSpeed 	13.999936129651
scalar RSUExampleScenario.node[33].veinsmobility 	totalDistance 	3413.4752739375
scalar RSUExampleScenario.node[33].veinsmobility 	totalCO2Emission 	690.47692175701
scalar RSUExampleScenario.node[34].veinsmobility 	startTime 	102.1
scalar RSUExampleScenario.node[34].veinsmobility 	totalTime 	270.6
scalar RSUExampleScenario.node[34].veinsmobility 	stopTime 	372.8
scalar RSUExampleScenario.node[34].veinsmobility 	minSpeed 	0.24748716848507
scalar RSUExampleScenario.node[34].veinsmobility 	maxSpeed 	13.999779308352
scalar RSUExampleScenario.node[34].veinsmobility 	totalDistance 	3409.4951725549
scalar RSUExampleScenario.node[34].veinsmobility 	totalCO2Emission 	693.06888089012
scalar RSUExampleScenario.node[35].veinsmobility 	startTime 	105.1
scalar RSUExampleScenario.node[35].veinsmobility 	totalTime 	271.3
scalar RSUExampleScenario.node[35].veinsmobility 	stopTime 	376.5
scalar RSUExampleScenario.node[35].veinsmobility 	minSpeed 	0.25616830989881
scalar RSUExampleScenario.node[35].veinsmobility 	maxSpeed 	13.999987169008
scalar RSUExampleScenario.node[35].veinsmobility 	totalDistance 	3414.3266958156
scalar RSUExampleScenario.node[35].veinsmobility 	totalCO2Emission 	691.25603810527
scalar RSUExampleScenario.node[36].veinsmobility 	startTime 	108.1
scalar RSUExampleScenario.node[36].veinsmobility 	totalTime 	271.9
scalar RSUExampleScenario.node[36].veinsmobility 	stopTime 	380.1
scalar RSUExampleScenario.node[36].veinsmobility 	minSpeed 	0.24762306505162
scalar RSUExampleScenario.node[36].veinsmobility 	maxSpeed 	13.99992895399
scalar RSUExampleScenario.node[36].veinsmobility 	totalDistance 	3409.4252289619
scalar RSUExampleScenario.node[36].veinsmobility 	totalCO2Emission 	691.85162570378
scalar RSUExampleScenario.node[37].veinsmobility 	startTime 	111.1
scalar RSUExampleScenario.node[37].veinsmobility 	totalTime 	272.4
scalar RSUExampleScenario.node[37].veinsmobility 	stopTime 	383.6
scalar RSUExampleScenario.node[37].veinsmobility 	minSpeed 	0.24943073726678
scalar RSUExampleScenario.node[37].veinsmobility 	maxSpeed 	13.999992571147
scalar RSUExampleScenario.node[37].veinsmobility 	totalDistance 	3413.8358902035
scalar RSUExampleScenario.node[37].veinsmobility 	totalCO2Emission 	694.40267374309
scalar RSUExampleScenario.node[38].veinsmobility 	startTime 	114.1
scalar RSUExampleScenario.node[38].veinsmobility 	totalTime 	273
scalar RSUExampleScenario.node[38].veinsmobility 	stopTime 	387.2
scalar RSUExampleScenario.node[38].veinsmobility 	minSpeed 	0.25213207075256
scalar RSUExampleScenario.node[38].veinsmobility 	maxSpeed 	13.99999792401
scalar RSUExampleScenario.node[38].veinsmobility 	totalDistance 	3409.7495628679
scalar RSUExampleScenario.node[38].veinsmobility 	totalCO2Emission 	692.54681365739
scalar RSUExampleScenario.node[39].veinsmobility 	startTime 	117.1
scalar RSUExampleScenario.node[39].veinsmobility 	totalTime 	273.7
scalar RSUExampleScenario.node[39].veinsmobility 	stopTime 	390.9
scalar RSUExampleScenario.node[39].veinsmobility 	minSpeed 	0.24743025308009
scalar RSUExampleScenario.node[39].veinsmobility 	maxSpeed 	13.999874124627
scalar RSUExampleScenario.node[39].veinsmobility 	totalDistance 	3413.8011375312
scalar RSUExampleScenario.node[39].veinsmobility 	totalCO2Emission 	689.78231423869
scalar RSUExampleScenario.node[40].veinsmobility 	startTime 	120.1
scalar RSUExampleScenario.node[40].veinsmobility 	totalTime 	274.4
scalar RSUExampleScenario.node[40].veinsmobility 	stopTime 	394.6
scalar RSUExampleScenario.node[40].veinsmobility 	minSpeed 	0.25310683839675
scalar RSUExampleScenario.node[40].veinsmobility 	maxSpeed 	13.999967664047
scalar RSUExampleScenario.node[40].veinsmobility 	totalDistance 	3409.5899473181
scalar RSUExampleScenario.node[40].veinsmobility 	totalCO2Emission 	696.69520078572
scalar RSUExampleScenario.node[41].veinsmobility 	startTime 	123.1
scalar RSUExampleScenario.node[41].veinsmobility 	totalTime 	275.1
scalar RSUExampleScenario.node[41].veinsmobility 	stopTime 	398.3
scalar RSUExampleScenario.node[41].veinsmobility 	minSpeed 	0.25599377982877
scalar RSUExampleScenario.node[41].veinsmobility 	maxSpeed 	13.999911238442
scalar RSUExampleScenario.node[41].veinsmobility 	totalDistance 	3413.6448034897
scalar RSUExampleScenario.node[41].veinsmobility 	totalCO2Emission 	695.79846393386
scalar RSUExampleScenario.node[42].veinsmobility 	startTime 	126.1
scalar RSUExampleScenario.node[42].veinsmobility 	totalTime 	275.8
scalar RSUExampleScenario.node[42].veinsmobility 	stopTime 	402
scalar RSUExampleScenario.node[42].veinsmobility 	minSpeed 	0.25013723082747
scalar RSUExampleScenario.node[42].veinsmobility 	maxSpeed 	13.99997569944
scalar RSUExampleScenario.node[42].veinsmobility 	totalDistance 	3409.5190354222
scalar RSUExampleScenario.node[42].veinsmobility 	totalCO2Emission 	696.69173001567
scalar RSUExampleScenario.node[43].veinsmobility 	startTime 	129.1
scalar RSUExampleScenario.node[43].veinsmobility 	totalTime 	276.5
scalar RSUExampleScenario.node[43].veinsmobility 	stopTime 	405.7
scalar RSUExampleScenario.node[43].veinsmobility 	minSpeed 	0.25773884605221
scalar RSUExampleScenario.node[43].veinsmobility 	maxSpeed 	13.999915324983
scalar RSUExampleScenario.node[43].veinsmobility 	totalDistance 	3413.628402981
scalar RSUExampleScenario.node[43].veinsmobility 	totalCO2Emission 	696.60482608345
scalar RSUExampleScenario.node[44].veinsmobility 	startTime 	132.1
scalar RSUExampleScenario.node[44].veinsmobility 	totalTime 	277.2
scalar RSUExampleScenario.node[44].veinsmobility 	stopTime 	409.4
scalar RSUExampleScenario.node[44].veinsmobility 	minSpeed 	0.25293005923089
scalar RSUExampleScenario.node[44].veinsmobility 	maxSpeed 	13.999988691579
scalar RSUExampleScenario.node[44].veinsmobility 	totalDistance 	3409.625559843
scalar RSUExampleScenario.node[44].veinsmobility 	totalCO2Emission 	702.02611471405
scalar RSUExampleScenario.node[45].veinsmobility 	startTime 	135.1
scalar RSUExampleScenario.node[45].veinsmobility 	totalTime 	277.9
scalar RSUExampleScenario.node[45].veinsmobility 	stopTime 	413.1
scalar RSUExampleScenario.node[45].veinsmobility 	minSpeed 	0.24846515323455
scalar RSUExampleScenario.node[45].veinsmobility 	maxSpeed 	13.999821978945
scalar RSUExampleScenario.node[45].veinsmobility 	totalDistance 	3409.8030988722
scalar RSUExampleScenario.node[45].veinsmobility 	totalCO2Emission 	699.18344534818
scalar RSUExampleScenario.node[46].veinsmobility 	startTime 	138.1
scalar RSUExampleScenario.node[46].veinsmobility 	totalTime 	278.6
scalar RSUExampleScenario.node[46].veinsmobility 	stopTime 	416.8
scalar RSUExampleScenario.node[46].veinsmobility 	minSpeed 	0.2569958750431
scalar RSUExampleScenario.node[46].veinsmobility 	maxSpeed 	13.999858367993
scalar RSUExampleScenario.node[46].veinsmobility 	totalDistance 	3413.7058938598
scalar RSUExampleScenario.node[46].veinsmobility 	totalCO2Emission 	698.55467092983
scalar RSUExampleScenario.node[47].veinsmobility 	startTime 	141.1
scalar RSUExampleScenario.node[47].veinsmobility 	totalTime 	279.3
scalar RSUExampleScenario.node[47].veinsmobility 	stopTime 	420.5
scalar RSUExampleScenario.node[47].veinsmobility 	minSpeed 	0.25246585025848
scalar RSUExampleScenario.node[47].veinsmobility 	maxSpeed 	13.999852225075
scalar RSUExampleScenario.node[47].veinsmobility 	totalDistance 	3409.7717903854
scalar RSUExampleScenario.node[47].veinsmobility 	totalCO2Emission 	705.40796478377
scalar RSUExampleScenario.node[48].veinsmobility 	startTime 	144.1
scalar RSUExampleScenario.node[48].veinsmobility 	totalTime 	280
scalar RSUExampleScenario.node[48].veinsmobility 	stopTime 	424.2
scalar RSUExampleScenario.node[48].veinsmobility 	minSpeed 	0.24909525935468
scalar RSUExampleScenario.node[48].veinsmobility 	maxSpeed 	13.999976983983
scalar RSUExampleScenario.node[48].veinsmobility 	totalDistance 	3414.0377016451
scalar RSUExampleScenario.node[48].veinsmobility 	totalCO2Emission 	698.71042093532
scalar RSUExampleScenario.node[49].veinsmobility 	startTime 	147.1
scalar RSUExampleScenario.node[49].veinsmobility 	totalTime 	280.7
scalar RSUExampleScenario.node[49].veinsmobility 	stopTime 	427.9
scalar RSUExampleScenario.node[49].veinsmobility 	minSpeed 	0.25893733123154
scalar RSUExampleScenario.node[49].veinsmobility 	maxSpeed 	13.999960541294
scalar RSUExampleScenario.node[49].veinsmobility 	totalDistance 	3409.7809802974
scalar RSUExampleScenario.node[49].veinsmobility 	totalCO2Emission 	703.39213145782
scalar RSUExampleScenario.node[50].veinsmobility 	startTime 	150.1
scalar RSUExampleScenario.node[50].veinsmobility 	totalTime 	281.4
scalar RSUExampleScenario.node[50].veinsmobility 	stopTime 	431.6
scalar RSUExampleScenario.node[50].veinsmobility 	minSpeed 	0.25122976104729
scalar RSUExampleScenario.node[50].veinsmobility 	maxSpeed 	13.999805297805
scalar RSUExampleScenario.node[50].veinsmobility 	totalDistance 	3413.9613397174
scalar RSUExampleScenario.node[50].veinsmobility 	totalCO2Emission 	703.01964469744
scalar RSUExampleScenario.node[51].veinsmobility 	startTime 	153.1
scalar RSUExampleScenario.node[51].veinsmobility 	totalTime 	282.2
scalar RSUExampleScenario.node[51].veinsmobility 	stopTime 	435.4
scalar RSUExampleScenario.node[51].veinsmobility 	minSpeed 	0.25841721784114
scalar RSUExampleScenario.node[51].veinsmobility 	maxSpeed 	13.999981382103
scalar RSUExampleScenario.node[51].veinsmobility 	totalDistance 	3410.0776983147
scalar RSUExampleScenario.node[51].veinsmobility 	totalCO2Emission 	706.21620516204
scalar RSUExampleScenario.node[52].veinsmobility 	startTime 	156.1
scalar RSUExampleScenario.node[52].veinsmobility 	totalTime 	282.9
scalar RSUExampleScenario.node[52].veinsmobility 	stopTime 	439.1
scalar RSUExampleScenario.node[52].veinsmobility 	minSpeed 	0.25850129976636
scalar RSUExampleScenario.node[52].veinsmobility 	maxSpeed 	13.999989537478
scalar RSUExampleScenario.node[52].veinsmobility 	totalDistance 	3409.5944167078
scalar RSUExampleScenario.node[52].veinsmobility 	totalCO2Emission 	704.74060584875
scalar RSUExampleScenario.node[53].veinsmobility 	startTime 	159.1
scalar RSUExampleScenario.node[53].veinsmobility 	totalTime 	283.6
scalar RSUExampleScenario.node[53].veinsmobility 	stopTime 	442.8
scalar RSUExampleScenario.node[53].veinsmobility 	minSpeed 	0.25199862164003
scalar RSUExampleScenario.node[53].veinsmobility 	maxSpeed 	13.999947251379
scalar RSUExampleScenario.node[53].veinsmobility 	totalDistance 	3413.9761294202
scalar RSUExampleScenario.node[53].veinsmobility 	totalCO2Emission 	706.38190498884
scalar RSUExampleScenario.node[54].veinsmobility 	startTime 	162.1
scalar RSUExampleScenario.node[54].veinsmobility 	totalTime 	284.3
scalar RSUExampleScenario.node[54].veinsmobility 	stopTime 	446.5
scalar RSUExampleScenario.node[54].veinsmobility 	minSpeed 	0.25787862987537
scalar RSUExampleScenario.node[54].veinsmobility 	maxSpeed 	13.999770313131
scalar RSUExampleScenario.node[54].veinsmobility 	totalDistance 	3409.6632126232
scalar RSUExampleScenario.node[54].veinsmobility 	totalCO2Emission 	704.19622472699
scalar RSUExampleScenario.node[55].veinsmobility 	startTime 	165.1
scalar RSUExampleScenario.node[55].veinsmobility 	totalTime 	285
scalar RSUExampleScenario.node[55].veinsmobility 	stopTime 	450.2
scalar RSUExampleScenario.node[55].veinsmobility 	minSpeed 	0.24796589350724
scalar RSUExampleScenario.node[55].veinsmobility 	maxSpeed 	13.99989093377
scalar RSUExampleScenario.node[55].veinsmobility 	totalDistance 	3414.0139225522
scalar RSUExampleScenario.node[55].veinsmobility 	totalCO2Emission 	701.72158445146
scalar RSUExampleScenario.node[56].veinsmobility 	startTime 	168.1
scalar RSUExampleScenario.node[56].veinsmobility 	totalTime 	285.7
scalar RSUExampleScenario.node[56].veinsmobility 	stopTime 	453.9
scalar RSUExampleScenario.node[56].veinsmobility 	minSpeed 	0.25792776531284
scalar RSUExampleScenario.node[56].veinsmobility 	maxSpeed 	13.999978803634
scalar RSUExampleScenario.node[56].veinsmobility 	totalDistance 	3409.5220730743
scalar RSUExampleScenario.node[56].veinsmobility 	totalCO2Emission 	708.27342526885
scalar RSUExampleScenario.node[57].veinsmobility 	startTime 	171.1
scalar RSUExampleScenario.node[57].veinsmobility 	totalTime 	286.3
scalar RSUExampleScenario.node[57].veinsmobility 	stopTime 	457.5
scalar RSUExampleScenario.node[57].veinsmobility 	minSpeed 	0.25207024728507
scalar RSUExampleScenario.node[57].veinsmobility 	maxSpeed 	13.999825540669
scalar RSUExampleScenario.node[57].veinsmobility 	totalDistance 	3413.5102757207
scalar RSUExampleScenario.node[57].veinsmobility 	totalCO2Emission 	706.29379835694
scalar RSUExampleScenario.node[58].veinsmobility 	startTime 	174.1
scalar RSUExampleScenario.node[58].veinsmobility 	totalTime 	287
scalar RSUExampleScenario.node[58].veinsmobility 	stopTime 	461.2
scalar RSUExampleScenario.node[58].veinsmobility 	minSpeed 	0.25747719889251
scalar RSUExampleScenario.node[58].veinsmobility 	maxSpeed 	13.999913191937
scalar RSUExampleScenario.node[58].veinsmobility 	totalDistance 	3409.7281109793
scalar RSUExampleScenario.node[58].veinsmobility 	totalCO2Emission 	706.95431448657
scalar RSUExampleScenario.node[59].veinsmobility 	startTime 	177.1
scalar RSUExampleScenario.node[59].veinsmobility 	totalTime 	287.7
scalar RSUExampleScenario.node[59].veinsmobility 	stopTime 	464.9
scalar RSUExampleScenario.node[59].veinsmobility 	minSpeed 	0.24772293500532
scalar RSUExampleScenario.node[59].veinsmobility 	maxSpeed 	13.999982883425
scalar RSUExampleScenario.node[59].veinsmobility 	totalDistance 	3413.5842542621
scalar RSUExampleScenario.node[59].veinsmobility 	totalCO2Emission 	709.99498592722
scalar RSUExampleScenario.node[60].veinsmobility 	startTime 	180.1
scalar RSUExampleScenario.node[60].veinsmobility 	totalTime 	288.5
scalar RSUExampleScenario.node[60].veinsmobility 	stopTime 	468.7
scalar RSUExampleScenario.node[60].veinsmobility 	minSpeed 	0.2535840045209
scalar RSUExampleScenario.node[60].veinsmobility 	maxSpeed 	13.999998108947
scalar RSUExampleScenario.node[60].veinsmobility 	totalDistance 	3410.1017509372
scalar RSUExampleScenario.node[60].veinsmobility 	totalCO2Emission 	709.36791557211
scalar RSUExampleScenario.node[61].veinsmobility 	startTime 	183.1
scalar RSUExampleScenario.node[61].veinsmobility 	totalTime 	289.2
scalar RSUExampleScenario.node[61].veinsmobility 	stopTime 	472.4
scalar RSUExampleScenario.node[61].veinsmobility 	minSpeed 	0.25279212730587
scalar RSUExampleScenario.node[61].veinsmobility 	maxSpeed 	13.999951730708
scalar RSUExampleScenario.node[61].veinsmobility 	totalDistance 	3414.0039047821
scalar RSUExampleScenario.node[61].veinsmobility 	totalCO2Emission 	710.54138171077
scalar RSUExampleScenario.node[62].veinsmobility 	startTime 	186.1
scalar RSUExampleScenario.node[62].veinsmobility 	totalTime 	289.9
scalar RSUExampleScenario.node[62].veinsmobility 	stopTime 	476.1
scalar RSUExampleScenario.node[62].veinsmobility 	minSpeed 	0.25260378480772
scalar RSUExampleScenario.node[62].veinsmobility 	maxSpeed 	13.999984763823
scalar RSUExampleScenario.node[62].veinsmobility 	totalDistance 	3409.739993999
scalar RSUExampleScenario.node[62].veinsmobility 	totalCO2Emission 	708.05994730396
scalar RSUExampleScenario.node[63].veinsmobility 	startTime 	189.1
scalar RSUExampleScenario.node[63].veinsmobility 	totalTime 	290.6
scalar RSUExampleScenario.node[63].veinsmobility 	stopTime 	479.8
scalar RSUExampleScenario.node[63].veinsmobility 	minSpeed 	0.25580404013931
scalar RSUExampleScenario.node[63].veinsmobility 	maxSpeed 	13.999920696823
scalar RSUExampleScenario.node[63].veinsmobility 	totalDistance 	3409.817893884
scalar RSUExampleScenario.node[63].veinsmobility 	totalCO2Emission 	711.52990316641
scalar RSUExampleScenario.node[64].veinsmobility 	startTime 	192.1
scalar RSUExampleScenario.node[64].veinsmobility 	totalTime 	291.3
scalar RSUExampleScenario.node[64].veinsmobility 	stopTime 	483.5
scalar RSUExampleScenario.node[64].veinsmobility 	minSpeed 	0.25333167306869
scalar RSUExampleScenario.node[64].veinsmobility 	maxSpeed 	13.999998630465
scalar RSUExampleScenario.node[64].veinsmobility 	totalDistance 	3413.7075916624
scalar RSUExampleScenario.node[64].veinsmobility 	totalCO2Emission 	716.11280195722
scalar RSUExampleScenario.node[65].veinsmobility 	startTime 	195.1
scalar RSUExampleScenario.node[65].veinsmobility 	totalTime 	292
scalar RSUExampleScenario.node[65].veinsmobility 	stopTime 	487.2
scalar RSUExampleScenario.node[65].veinsmobility 	minSpeed 	0.25076947871922
scalar RSUExampleScenario.node[65].veinsmobility 	maxSpeed 	13.99995476586
scalar RSUExampleScenario.node[65].veinsmobility 	totalDistance 	3410.0009215433
scalar RSUExampleScenario.node[65].veinsmobility 	totalCO2Emission 	714.2038489158
scalar RSUExampleScenario.node[66].veinsmobility 	startTime 	198.1
scalar RSUExampleScenario.node[66].veinsmobility 	totalTime 	292.7
scalar RSUExampleScenario.node[66].veinsmobility 	stopTime 	490.9
scalar RSUExampleScenario.node[66].veinsmobility 	minSpeed 	0.24760193584394
scalar RSUExampleScenario.node[66].veinsmobility 	maxSpeed 	13.999940443656
scalar RSUExampleScenario.node[66].veinsmobility 	totalDistance 	3413.9047471061
scalar RSUExampleScenario.node[66].veinsmobility 	totalCO2Emission 	713.11200842601
scalar RSUExampleScenario.node[67].veinsmobility 	startTime 	201.1
scalar RSUExampleScenario.node[67].veinsmobility 	totalTime 	293.4
scalar RSUExampleScenario.node[67].veinsmobility 	stopTime 	494.6
scalar RSUExampleScenario.node[67].veinsmobility 	minSpeed 	0.25924397520255
scalar RSUExampleScenario.node[67].veinsmobility 	maxSpeed 	13.999999543589
scalar RSUExampleScenario.node[67].veinsmobility 	totalDistance 	3409.4360709158
scalar RSUExampleScenario.node[67].veinsmobility 	totalCO2Emission 	713.14234643807
scalar RSUExampleScenario.node[68].veinsmobility 	startTime 	204.1
scalar RSUExampleScenario.node[68].veinsmobility 	totalTime 	294.1
scalar RSUExampleScenario.node[68].veinsmobility 	stopTime 	498.3
scalar RSUExampleScenario.node[68].veinsmobility 	minSpeed 	0.25349912276724
scalar RSUExampleScenario.node[68].veinsmobility 	maxSpeed 	13.999995382347
scalar RSUExampleScenario.node[68].veinsmobility 	totalDistance 	3414.1684845029
scalar RSUExampleScenario.node[68].veinsmobility 	totalCO2Emission 	714.73824179188
scalar RSUExampleScenario.node[69].veinsmobility 	startTime 	207.1
scalar RSUExampleScenario.node[69].veinsmobility 	totalTime 	294.8
scalar RSUExampleScenario.node[69].veinsmobility 	stopTime 	502
scalar RSUExampleScenario.node[69].veinsmobility 	minSpeed 	0.25720080234413
scalar RSUExampleScenario.node[69].veinsmobility 	maxSpeed 	13.99996319952
scalar RSUExampleScenario.node[69].veinsmobility 	totalDistance 	3409.8291995786
scalar RSUExampleScenario.node[69].veinsmobility 	totalCO2Emission 	716.39088993653
scalar RSUExampleScenario.node[70].veinsmobility 	startTime 	210.1
scalar RSUExampleScenario.node[70].veinsmobility 	totalTime 	295.5
scalar RSUExampleScenario.node[70].veinsmobility 	stopTime 	505.7
scalar RSUExampleScenario.node[70].veinsmobility 	minSpeed 	0.25448010413791
scalar RSUExampleScenario.node[70].veinsmobility 	maxSpeed 	13.999992073148
scalar RSUExampleScenario.node[70].veinsmobility 	totalDistance 	3414.247407815
scalar RSUExampleScenario.node[70].veinsmobility 	totalCO2Emission 	717.32828122508
scalar RSUExampleScenario.node[71].veinsmobility 	startTime 	213.1
scalar RSUExampleScenario.node[71].veinsmobility 	totalTime 	296.2
scalar RSUExampleScenario.node[71].veinsmobility 	stopTime 	509.4
scalar RSUExampleScenario.node[71].veinsmobility 	minSpeed 	0.24950990577508
scalar RSUExampleScenario.node[71].veinsmobility 	maxSpeed 	13.999962023518
scalar RSUExampleScenario.node[71].veinsmobility 	totalDistance 	3410.0956479309
scalar RSUExampleScenario.node[71].veinsmobility 	totalCO2Emission 	718.39745848169
scalar RSUExampleScenario.node[72].veinsmobility 	startTime 	216.1
scalar RSUExampleScenario.node[72].veinsmobility 	totalTime 	296.9
scalar RSUExampleScenario.node[72].veinsmobility 	stopTime 	513.1
scalar RSUExampleScenario.node[72].veinsmobility 	minSpeed 	0.25045359131158
scalar RSUExampleScenario.node[72].veinsmobility 	maxSpeed 	13.999965248117
scalar RSUExampleScenario.node[72].veinsmobility 	totalDistance 	3413.8956798621
scalar RSUExampleScenario.node[72].veinsmobility 	totalCO2Emission 	713.50348288662
scalar RSUExampleScenario.node[73].veinsmobility 	startTime 	219.1
scalar RSUExampleScenario.node[73].veinsmobility 	totalTime 	297.6
scalar RSUExampleScenario.node[73].veinsmobility 	stopTime 	516.8
scalar RSUExampleScenario.node[73].veinsmobility 	minSpeed 	0.25242907213094
scalar RSUExampleScenario.node[73].veinsmobility 	maxSpeed 	13.999961783825
scalar RSUExampleScenario.node[73].veinsmobility 	totalDistance 	3409.4960509463
scalar RSUExampleScenario.node[73].veinsmobility 	totalCO2Emission 	717.94110480529
scalar RSUExampleScenario.node[74].veinsmobility 	startTime 	222.1
scalar RSUExampleScenario.node[74].veinsmobility 	totalTime 	298.3
scalar RSUExampleScenario.node[74].veinsmobility 	stopTime 	520.5
scalar RSUExampleScenario.node[74].veinsmobility 	minSpeed 	0.24894261218631
scalar RSUExampleScenario.node[74].veinsmobility 	maxSpeed 	13.999842270541
scalar RSUExampleScenario.node[74].veinsmobility 	totalDistance 	3413.5694939795
scalar RSUExampleScenario.node[74].veinsmobility 	totalCO2Emission 	719.0822738717
scalar RSUExampleScenario.node[75].veinsmobility 	startTime 	225.1
scalar RSUExampleScenario.node[75].veinsmobility 	totalTime 	299
scalar RSUExampleScenario.node[75].veinsmobility 	stopTime 	524.2
scalar RSUExampleScenario.node[75].veinsmobility 	minSpeed 	0.25164239050006
scalar RSUExampleScenario.node[75].veinsmobility 	maxSpeed 	13.999949622483
scalar RSUExampleScenario.node[75].veinsmobility 	totalDistance 	3410.1612230969
scalar RSUExampleScenario.node[75].veinsmobility 	totalCO2Emission 	726.70391560627
scalar RSUExampleScenario.node[76].veinsmobility 	startTime 	228.1
scalar RSUExampleScenario.node[76].veinsmobility 	totalTime 	299.6
scalar RSUExampleScenario.node[76].veinsmobility 	stopTime 	527.8
scalar RSUExampleScenario.node[76].veinsmobility 	minSpeed 	0.25592759325565
scalar RSUExampleScenario.node[76].veinsmobility 	maxSpeed 	13.999920291142
scalar RSUExampleScenario.node[76].veinsmobility 	totalDistance 	3413.6433393974
scalar RSUExampleScenario.node[76].veinsmobility 	totalCO2Emission 	721.03360208344
scalar RSUExampleScenario.node[77].veinsmobility 	startTime 	231.1
scalar RSUExampleScenario.node[77].veinsmobility 	totalTime 	300.3
scalar RSUExampleScenario.node[77].veinsmobility 	stopTime 	531.5
scalar RSUExampleScenario.node[77].veinsmobility 	minSpeed 	0.25168321989127
scalar RSUExampleScenario.node[77].veinsmobility 	maxSpeed 	13.99953590476
scalar RSUExampleScenario.node[77].veinsmobility 	totalDistance 	3409.7267196618
scalar RSUExampleScenario.node[77].veinsmobility 	totalCO2Emission 	721.14663881802
scalar RSUExampleScenario.node[78].veinsmobility 	startTime 	234.1
scalar RSUExampleScenario.node[78].veinsmobility 	totalTime 	301.1
scalar RSUExampleScenario.node[78].veinsmobility 	stopTime 	535.3
scalar RSUExampleScenario.node[78].veinsmobility 	minSpeed 	0.24735331074568
scalar RSUExampleScenario.node[78].veinsmobility 	maxSpeed 	13.999932205074
scalar RSUExampleScenario.node[78].veinsmobility 	totalDistance 	3414.2847370325
scalar RSUExampleScenario.node[78].veinsmobility 	totalCO2Emission 	724.48018240344
scalar RSUExampleScenario.node[79].veinsmobility 	startTime 	237.1
scalar RSUExampleScenario.node[79].veinsmobility 	totalTime 	301.9
scalar RSUExampleScenario.node[79].veinsmobility 	stopTime 	539.1
scalar RSUExampleScenario.node[79].veinsmobility 	minSpeed 	0.25430708317505
scalar RSUExampleScenario.node[79].veinsmobility 	maxSpeed 	13.999893876817
scalar RSUExampleScenario.node[79].veinsmobility 	totalDistance 	3410.0730586486
scalar RSUExampleScenario.node[79].veinsmobility 	totalCO2Emission 	724.77161998335
scalar RSUExampleScenario.node[80].veinsmobility 	startTime 	240.1
scalar RSUExampleScenario.node[80].veinsmobility 	totalTime 	302.6
scalar RSUExampleScenario.node[80].veinsmobility 	stopTime 	542.8
scalar RSUExampleScenario.node[80].veinsmobility 	minSpeed 	0.2528490487372
scalar RSUExampleScenario.node[80].veinsmobility 	maxSpeed 	13.999867398839
scalar RSUExampleScenario.node[80].veinsmobility 	totalDistance 	3409.4489771013
scalar RSUExampleScenario.node[80].veinsmobility 	totalCO2Emission 	726.94536644198
scalar RSUExampleScenario.node[81].veinsmobility 	startTime 	243.1
scalar RSUExampleScenario.node[81].veinsmobility 	totalTime 	303.3
scalar RSUExampleScenario.node[81].veinsmobility 	stopTime 	546.5
scalar RSUExampleScenario.node[81].veinsmobility 	minSpeed 	0.25731340928632
scalar RSUExampleScenario.node[81].veinsmobility 	maxSpeed 	13.999906895591
scalar RSUExampleScenario.node[81].veinsmobility 	totalDistance 	3414.1855969457
scalar RSUExampleScenario.node[81].veinsmobility 	totalCO2Emission 	723.35417295601
scalar RSUExampleScenario.node[82].veinsmobility 	startTime 	246.1
scalar RSUExampleScenario.node[82].veinsmobility 	totalTime 	304
scalar RSUExampleScenario.node[82].veinsmobility 	stopTime 	550.2
scalar RSUExampleScenario.node[82].veinsmobility 	minSpeed 	0.25033169115707
scalar RSUExampleScenario.node[82].veinsmobility 	maxSpeed 	13.99997440391
scalar RSUExampleScenario.node[82].veinsmobility 	totalDistance 	3409.7416145981
scalar RSUExampleScenario.node[82].veinsmobility 	totalCO2Emission 	727.8502445855
scalar RSUExampleScenario.node[83].veinsmobility 	startTime 	249.1
scalar RSUExampleScenario.node[83].veinsmobility 	totalTime 	304.7
scalar RSUExampleScenario.node[83].veinsmobility 	stopTime 	553.9
scalar RSUExampleScenario.node[83].veinsmobility 	minSpeed 	0.25548102012975
scalar RSUExampleScenario.node[83].veinsmobility 	maxSpeed 	13.999904996366
scalar RSUExampleScenario.node[83].veinsmobility 	totalDistance 	3414.2037398748
scalar RSUExampleScenario.node[83].veinsmobility 	totalCO2Emission 	726.93755600374
scalar RSUExampleScenario.node[84].veinsmobility 	startTime 	252.1
scalar RSUExampleScenario.node[84].veinsmobility 	totalTime 	305.4
scalar RSUExampleScenario.node[84].veinsmobility 	stopTime 	557.6
scalar RSUExampleScenario.node[84].veinsmobility 	minSpeed 	0.25085756838275
scalar RSUExampleScenario.node[84].veinsmobility 	maxSpeed 	13.999680528636
scalar RSUExampleScenario.node[84].veinsmobility 	totalDistance 	3409.9818009214
scalar RSUExampleScenario.node[84].veinsmobility 	totalCO2Emission 	728.0695506426
scalar RSUExampleScenario.node[85].veinsmobility 	startTime 	255.1
scalar RSUExampleScenario.node[85].veinsmobility 	totalTime 	306.1
scalar RSUExampleScenario.node[85].veinsmobility 	stopTime 	561.3
scalar RSUExampleScenario.node[85].veinsmobility 	minSpeed 	0.25266602946934
scalar RSUExampleScenario.node[85].veinsmobility 	maxSpeed 	13.999920109836
scalar RSUExampleScenario.node[85].veinsmobility 	totalDistance 	3414.3379763387
scalar RSUExampleScenario.node[85].veinsmobility 	totalCO2Emission 	726.32310127172
scalar RSUExampleScenario.node[86].veinsmobility 	startTime 	258.1
scalar RSUExampleScenario.node[86].veinsmobility 	totalTime 	306.8
scalar RSUExampleScenario.node[86].veinsmobility 	stopTime 	565
scalar RSUExampleScenario.node[86].veinsmobility 	minSpeed 	0.25191601872654
scalar RSUExampleScenario.node[86].veinsmobility 	maxSpeed 	13.999836118028
scalar RSUExampleScenario.node[86].veinsmobility 	totalDistance 	3409.6725231899
scalar RSUExampleScenario.node[86].veinsmobility 	totalCO2Emission 	733.38521816864
scalar RSUExampleScenario.node[87].veinsmobility 	startTime 	261.1
scalar RSUExampleScenario.node[87].veinsmobility 	totalTime 	307.5
scalar RSUExampleScenario.node[87].veinsmobility 	stopTime 	568.7
scalar RSUExampleScenario.node[87].veinsmobility 	minSpeed 	0.25610371539136
scalar RSUExampleScenario.node[87].veinsmobility 	maxSpeed 	13.999772304341
scalar RSUExampleScenario.node[87].veinsmobility 	totalDistance 	3414.1525911891
scalar RSUExampleScenario.node[87].veinsmobility 	totalCO2Emission 	728.87491557766
scalar RSUExampleScenario.node[88].veinsmobility 	startTime 	264.1
scalar RSUExampleScenario.node[88].veinsmobility 	totalTime 	308.2
scalar RSUExampleScenario.node[88].veinsmobility 	stopTime 	572.4
scalar RSUExampleScenario.node[88].veinsmobility 	minSpeed 	0.24712465201668
scalar RSUExampleScenario.node[88].veinsmobility 	maxSpeed 	13.99972888283
scalar RSUExampleScenario.node[88].veinsmobility 	totalDistance 	3409.5346616986
scalar RSUExampleScenario.node[88].veinsmobility 	totalCO2Emission 	727.12630120727
scalar RSUExampleScenario.node[89].veinsmobility 	startTime 	267.1
scalar RSUExampleScenario.node[89].veinsmobility 	totalTime 	308.9
scalar RSUExampleScenario.node[89].veinsmobility 	stopTime 	576.1
scalar RSUExampleScenario.node[89].veinsmobility 	minSpeed 	0.25213423557021
scalar RSUExampleScenario.node[89].veinsmobility 	maxSpeed 	13.999938891847
scalar RSUExampleScenario.node[89].veinsmobility 	totalDistance 	3409.7022832564
scalar RSUExampleScenario.node[89].veinsmobility 	totalCO2Emission 	731.50742248812
scalar RSUExampleScenario.node[90].veinsmobility 	startTime 	270.1
scalar RSUExampleScenario.node[90].veinsmobility 	totalTime 	309.6
scalar RSUExampleScenario.node[90].veinsmobility 	stopTime 	579.8
scalar RSUExampleScenario.node[90].veinsmobility 	minSpeed 	0.24863850594661
scalar RSUExampleScenario.node[90].veinsmobility 	maxSpeed 	13.999915947504
scalar RSUExampleScenario.node[90].veinsmobility 	totalDistance 	3413.7870571208
scalar RSUExampleScenario.node[90].veinsmobility 	totalCO2Emission 	732.43712344226
scalar RSUExampleScenario.node[91].veinsmobility 	startTime 	273.1
scalar RSUExampleScenario.node[91].veinsmobility 	totalTime 	310.3
scalar RSUExampleScenario.node[91].veinsmobility 	stopTime 	583.5
scalar RSUExampleScenario.node[91].veinsmobility 	minSpeed 	0.25379313413193
scalar RSUExampleScenario.node[91].veinsmobility 	maxSpeed 	13.999885681851
scalar RSUExampleScenario.node[91].veinsmobility 	totalDistance 	3409.8071320801
scalar RSUExampleScenario.node[91].veinsmobility 	totalCO2Emission 	733.00406067071
scalar RSUExampleScenario.node[92].veinsmobility 	startTime 	276.1
scalar RSUExampleScenario.node[92].veinsmobility 	totalTime 	311
scalar RSUExampleScenario.node[92].veinsmobility 	stopTime 	587.2
scalar RSUExampleScenario.node[92].veinsmobility 	minSpeed 	0.25029802295589
scalar RSUExampleScenario.node[92].veinsmobility 	maxSpeed 	13.999914185272
scalar RSUExampleScenario.node[92].veinsmobility 	totalDistance 	3413.668323277
scalar RSUExampleScenario.node[92].veinsmobility 	totalCO2Emission 	732.52639790614
scalar RSUExampleScenario.node[93].veinsmobility 	startTime 	279.1
scalar RSUExampleScenario.node[93].veinsmobility 	totalTime 	311.7
scalar RSUExampleScenario.node[93].veinsmobility 	stopTime 	590.9
scalar RSUExampleScenario.node[93].veinsmobility 	minSpeed 	0.24729303370882
scalar RSUExampleScenario.node[93].veinsmobility 	maxSpeed 	13.999993689519
scalar RSUExampleScenario.node[93].veinsmobility 	totalDistance 	3410.1533953098
scalar RSUExampleScenario.node[93].veinsmobility 	totalCO2Emission 	731.89757862454
scalar RSUExampleScenario.node[94].veinsmobility 	startTime 	282.1
scalar RSUExampleScenario.node[94].veinsmobility 	totalTime 	312.4
scalar RSUExampleScenario.node[94].veinsmobility 	stopTime 	594.6
scalar RSUExampleScenario.node[94].veinsmobility 	minSpeed 	0.25672343058232
scalar RSUExampleScenario.node[94].veinsmobility 	maxSpeed 	13.99991944954
scalar RSUExampleScenario.node[94].veinsmobility 	totalDistance 	3413.8637208837
scalar RSUExampleScenario.node[94].veinsmobility 	totalCO2Emission 	734.98384371169
scalar RSUExampleScenario.node[95].veinsmobility 	startTime 	285.1
scalar RSUExampleScenario.node[95].veinsmobility 	totalTime 	313.1
scalar RSUExampleScenario.node[95].veinsmobility 	stopTime 	598.3
scalar RSUExampleScenario.node[95].veinsmobility 	minSpeed 	0.25597021477786
scalar RSUExampleScenario.node[95].veinsmobility 	maxSpeed 	13.999930705992
scalar RSUExampleScenario.node[95].veinsmobility 	totalDistance 	3409.5530883663
scalar RSUExampleScenario.node[95].veinsmobility 	totalCO2Emission 	732.29416170808
scalar RSUExampleScenario.node[96].veinsmobility 	startTime 	288.1
scalar RSUExampleScenario.node[96].veinsmobility 	totalTime 	313.8
scalar RSUExampleScenario.node[96].veinsmobility 	stopTime 	602
scalar RSUExampleScenario.node[96].veinsmobility 	minSpeed 	0.25838576578302
scalar RSUExampleScenario.node[96].veinsmobility 	maxSpeed 	13.99999112464
scalar RSUExampleScenario.node[96].veinsmobility 	totalDistance 	3410.0070332904
scalar RSUExampleScenario.node[96].veinsmobility 	totalCO2Emission 	735.25572447978
scalar RSUExampleScenario.node[97].veinsmobility 	startTime 	291.1
scalar RSUExampleScenario.node[97].veinsmobility 	totalTime 	314.5
scalar RSUExampleScenario.node[97].veinsmobility 	stopTime 	605.7
scalar RSUExampleScenario.node[97].veinsmobility 	minSpeed 	0.2540425167561
scalar RSUExampleScenario.node[97].veinsmobility 	maxSpeed 	13.999907445712
scalar RSUExampleScenario.node[97].veinsmobility 	totalDistance 	3414.0874958284
scalar RSUExampleScenario.node[97].veinsmobility 	totalCO2Emission 	732.56972636527
scalar RSUExampleScenario.node[98].veinsmobility 	startTime 	294.1
scalar RSUExampleScenario.node[98].veinsmobility 	totalTime 	315.2
scalar RSUExampleScenario.node[98].veinsmobility 	stopTime 	609.4
scalar RSUExampleScenario.node[98].veinsmobility 	minSpeed 	0.25560494796676
scalar RSUExampleScenario.node[98].veinsmobility 	maxSpeed 	13.99989421146
scalar RSUExampleScenario.node[98].veinsmobility 	totalDistance 	3409.7422412551
scalar RSUExampleScenario.node[98].veinsmobility 	totalCO2Emission 	733.45856022477
scalar RSUExampleScenario.node[99].veinsmobility 	startTime 	297.1
scalar RSUExampleScenario.node[99].veinsmobility 	totalTime 	315.9
scalar RSUExampleScenario.node[99].veinsmobility 	stopTime 	613.1
scalar RSUExampleScenario.node[99].veinsmobility 	minSpeed 	0.25578723103553
scalar RSUExampleScenario.node[99].veinsmobility 	maxSpeed 	13.999828601428
scalar RSUExampleScenario.node[99].veinsmobility 	totalDistance 	3410.1161820402
scalar RSUExampleScenario.node[99].veinsmobility 	totalCO2Emission 	735.46964644855
scalar RSUExampleScenario.node[100].veinsmobility 	startTime 	300.1
scalar RSUExampleScenario.node[100].veinsmobility 	totalTime 	316.6
scalar RSUExampleScenario.node[100].veinsmobility 	stopTime 	616.8
scalar RSUExampleScenario.node[100].veinsmobility 	minSpeed 	0.25625404142006
scalar RSUExampleScenario.node[100].veinsmobility 	maxSpeed 	13.999842137967
scalar RSUExampleScenario.node[100].veinsmobility 	totalDistance 	3413.536492694
scalar RSUExampleScenario.node[100].veinsmobility 	totalCO2Emission 	742.61815519345
scalar RSUExampleScenario.node[101].veinsmobility 	startTime 	303.1
scalar RSUExampleScenario.node[101].veinsmobility 	totalTime 	317.3
scalar RSUExampleScenario.node[101].veinsmobility 	stopTime 	620.5
scalar RSUExampleScenario.node[101].veinsmobility 	minSpeed 	0.25881485638488
scalar RSUExampleScenario.node[101].veinsmobility 	maxSpeed 	13.999982355824
scalar RSUExampleScenario.node[101].veinsmobility 	totalDistance 	3410.2068953054
scalar RSUExampleScenario.node[101].veinsmobility 	totalCO2Emission 	738.63143023131
scalar RSUExampleScenario.node[102].veinsmobility 	startTime 	306.1
scalar RSUExampleScenario.node[102].veinsmobility 	totalTime 	318
scalar RSUExampleScenario.node[102].veinsmobility 	stopTime 	624.2
scalar RSUExampleScenario.node[102].veinsmobility 	minSpeed 	0.25853107690928
scalar RSUExampleScenario.node[102].veinsmobility 	maxSpeed 	13.999991390726
scalar RSUExampleScenario.node[102].veinsmobility 	totalDistance 	3414.0160629777
scalar RSUExampleScenario.node[102].veinsmobility 	totalCO2Emission 	741.67080428078
scalar RSUExampleScenario.node[103].veinsmobility 	startTime 	309.1
scalar RSUExampleScenario.node[103].veinsmobility 	totalTime 	318.8
scalar RSUExampleScenario.node[103].veinsmobility 	stopTime 	628
scalar RSUExampleScenario.node[103].veinsmobility 	minSpeed 	0.25529391923337
scalar RSUExampleScenario.node[103].veinsmobility 	maxSpeed 	13.999981757305
scalar RSUExampleScenario.node[103].veinsmobility 	totalDistance 	3409.9492178297
scalar RSUExampleScenario.node[103].veinsmobility 	totalCO2Emission 	743.95959396495
scalar RSUExampleScenario.node[104].veinsmobility 	startTime 	312.1
scalar RSUExampleScenario.node[104].veinsmobility 	totalTime 	319.5
scalar RSUExampleScenario.node[104].veinsmobility 	stopTime 	631.7
scalar RSUExampleScenario.node[104].veinsmobility 	minSpeed 	0.25775580276991
scalar RSUExampleScenario.node[104].veinsmobility 	maxSpeed 	13.999956304776
scalar RSUExampleScenario.node[104].veinsmobility 	totalDistance 	3413.8447600821
scalar RSUExampleScenario.node[104].veinsmobility 	totalCO2Emission 	739.89583168051
scalar RSUExampleScenario.node[105].veinsmobility 	startTime 	315.1
scalar RSUExampleScenario.node[105].veinsmobility 	totalTime 	320.3
scalar RSUExampleScenario.node[105].veinsmobility 	stopTime 	635.5
scalar RSUExampleScenario.node[105].veinsmobility 	minSpeed 	0.25232379252883
scalar RSUExampleScenario.node[105].veinsmobility 	maxSpeed 	13.999824167895
scalar RSUExampleScenario.node[105].veinsmobility 	totalDistance 	3410.2265016312
scalar RSUExampleScenario.node[105].veinsmobility 	totalCO2Emission 	743.36177548963
scalar RSUExampleScenario.node[106].veinsmobility 	startTime 	318.1
scalar RSUExampleScenario.node[106].veinsmobility 	totalTime 	321
scalar RSUExampleScenario.node[106].veinsmobility 	stopTime 	639.2
scalar RSUExampleScenario.node[106].veinsmobility 	minSpeed 	0.25957622122951
scalar RSUExampleScenario.node[106].veinsmobility 	maxSpeed 	13.999964479099
scalar RSUExampleScenario.node[106].veinsmobility 	totalDistance 	3413.6677966409
scalar RSUExampleScenario.node[106].veinsmobility 	totalCO2Emission 	743.96743577869
scalar RSUExampleScenario.node[107].veinsmobility 	startTime 	321.1
scalar RSUExampleScenario.node[107].veinsmobility 	totalTime 	321.7
scalar RSUExampleScenario.node[107].veinsmobility 	stopTime 	642.9
scalar RSUExampleScenario.node[107].veinsmobility 	minSpeed 	0.24817399231787
scalar RSUExampleScenario.node[107].veinsmobility 	maxSpeed 	13.999990303773
scalar RSUExampleScenario.node[107].veinsmobility 	totalDistance 	3409.7730985468
scalar RSUExampleScenario.node[107].veinsmobility 	totalCO2Emission 	747.11932029458
scalar RSUExampleScenario.node[108].veinsmobility 	startTime 	324.1
scalar RSUExampleScenario.node[108].veinsmobility 	totalTime 	322.3
scalar RSUExampleScenario.node[108].veinsmobility 	stopTime 	646.5
scalar RSUExampleScenario.node[108].veinsmobility 	minSpeed 	0.2513962140393
scalar RSUExampleScenario.node[108].veinsmobility 	maxSpeed 	13.999988081316
scalar RSUExampleScenario.node[108].veinsmobility 	totalDistance 	3413.88873803
scalar RSUExampleScenario.node[108].veinsmobility 	totalCO2Emission 	744.08589273316
scalar RSUExampleScenario.node[109].veinsmobility 	startTime 	327.1
scalar RSUExampleScenario.node[109].veinsmobility 	totalTime 	323
scalar RSUExampleScenario.node[109].veinsmobility 	stopTime 	650.2
scalar RSUExampleScenario.node[109].veinsmobility 	minSpeed 	0.25210732828919
scalar RSUExampleScenario.node[109].veinsmobility 	maxSpeed 	13.999934222798
scalar RSUExampleScenario.node[109].veinsmobility 	totalDistance 	3410.0011337254
scalar RSUExampleScenario.node[109].veinsmobility 	totalCO2Emission 	744.73343229527
scalar RSUExampleScenario.node[110].veinsmobility 	startTime 	330.1
scalar RSUExampleScenario.node[110].veinsmobility 	totalTime 	323.8
scalar RSUExampleScenario.node[110].veinsmobility 	stopTime 	654
scalar RSUExampleScenario.node[110].veinsmobility 	minSpeed 	0.25551250206237
scalar RSUExampleScenario.node[110].veinsmobility 	maxSpeed 	13.99995622626
scalar RSUExampleScenario.node[110].veinsmobility 	totalDistance 	3414.0693111907
scalar RSUExampleScenario.node[110].veinsmobility 	totalCO2Emission 	746.34861926762
scalar RSUExampleScenario.node[111].veinsmobility 	startTime 	333.1
scalar RSUExampleScenario.node[111].veinsmobility 	totalTime 	324.5
scalar RSUExampleScenario.node[111].veinsmobility 	stopTime 	657.7
scalar RSUExampleScenario.node[111].veinsmobility 	minSpeed 	0.24874328902364
scalar RSUExampleScenario.node[111].veinsmobility 	maxSpeed 	13.999972614588
scalar RSUExampleScenario.node[111].veinsmobility 	totalDistance 	3409.7597765342
scalar RSUExampleScenario.node[111].veinsmobility 	totalCO2Emission 	744.99652784902
scalar RSUExampleScenario.node[112].veinsmobility 	startTime 	336.1
scalar RSUExampleScenario.node[112].veinsmobility 	totalTime 	325.2
scalar RSUExampleScenario.node[112].veinsmobility 	stopTime 	661.4
scalar RSUExampleScenario.node[112].veinsmobility 	minSpeed 	0.24817294026935
scalar RSUExampleScenario.node[112].veinsmobility 	maxSpeed 	13.999911401798
scalar RSUExampleScenario.node[112].veinsmobility 	totalDistance 	3413.8996967484
scalar RSUExampleScenario.node[112].veinsmobility 	totalCO2Emission 	747.0434186871
scalar RSUExampleScenario.node[113].veinsmobility 	startTime 	339.1
scalar RSUExampleScenario.node[113].veinsmobility 	totalTime 	325.9
scalar RSUExampleScenario.node[113].veinsmobility 	stopTime 	665.1
scalar RSUExampleScenario.node[113].veinsmobility 	minSpeed 	0.2554935465923
scalar RSUExampleScenario.node[113].veinsmobility 	maxSpeed 	13.99995464836
scalar RSUExampleScenario.node[113].veinsmobility 	totalDistance 	3410.0263002504
scalar RSUExampleScenario.node[113].veinsmobility 	totalCO2Emission 	748.29499514247
scalar RSUExampleScenario.node[114].veinsmobility 	startTime 	342.1
scalar RSUExampleScenario.node[114].veinsmobility 	totalTime 	326.5
scalar RSUExampleScenario.node[114].veinsmobility 	stopTime 	668.7
scalar RSUExampleScenario.node[114].veinsmobility 	minSpeed 	0.25396059246594
scalar RSUExampleScenario.node[114].veinsmobility 	maxSpeed 	13.9999877915
scalar RSUExampleScenario.node[114].veinsmobility 	totalDistance 	3413.7104464555
scalar RSUExampleScenario.node[114].veinsmobility 	totalCO2Emission 	746.39129161299
scalar RSUExampleScenario.node[115].veinsmobility 	startTime 	345.1
scalar RSUExampleScenario.node[115].veinsmobility 	totalTime 	327.2
scalar RSUExampleScenario.node[115].veinsmobility 	stopTime 	672.4
scalar RSUExampleScenario.node[115].veinsmobility 	minSpeed 	0.25118198114331
scalar RSUExampleScenario.node[115].veinsmobility 	maxSpeed 	13.999887473928
scalar RSUExampleScenario.node[115].veinsmobility 	totalDistance 	3410.0769348841
scalar RSUExampleScenario.node[115].veinsmobility 	totalCO2Emission 	747.85779177895
scalar RSUExampleScenario.node[116].veinsmobility 	startTime 	348.1
scalar RSUExampleScenario.node[116].veinsmobility 	totalTime 	327.9
scalar RSUExampleScenario.node[116].veinsmobility 	stopTime 	676.1
scalar RSUExampleScenario.node[116].veinsmobility 	minSpeed 	0.25395758109516
scalar RSUExampleScenario.node[116].veinsmobility 	maxSpeed 	13.999979417438
scalar RSUExampleScenario.node[116].veinsmobility 	totalDistance 	3414.1268436968
scalar RSUExampleScenario.node[116].veinsmobility 	totalCO2Emission 	750.67165606898
scalar RSUExampleScenario.node[117].veinsmobility 	startTime 	351.1
scalar RSUExampleScenario.node[117].veinsmobility 	totalTime 	328.6
scalar RSUExampleScenario.node[117].veinsmobility 	stopTime 	679.8
scalar RSUExampleScenario.node[117].veinsmobility 	minSpeed 	0.25072510738368
scalar RSUExampleScenario.node[117].veinsmobility 	maxSpeed 	13.999934706602
scalar RSUExampleScenario.node[117].veinsmobility 	totalDistance 	3409.8422365814
scalar RSUExampleScenario.node[117].veinsmobility 	totalCO2Emission 	752.61418079454
scalar RSUExampleScenario.node[118].veinsmobility 	startTime 	354.1
scalar RSUExampleScenario.node[118].veinsmobility 	totalTime 	329.2
scalar RSUExampleScenario.node[118].veinsmobility 	stopTime 	683.4
scalar RSUExampleScenario.node[118].veinsmobility 	minSpeed 	0.25615118413139
scalar RSUExampleScenario.node[118].veinsmobility 	maxSpeed 	13.999987493723
scalar RSUExampleScenario.node[118].veinsmobility 	totalDistance 	3413.7788058382
scalar RSUExampleScenario.node[118].veinsmobility 	totalCO2Emission 	755.41543661672
scalar RSUExampleScenario.node[119].veinsmobility 	startTime 	357.1
scalar RSUExampleScenario.node[119].veinsmobility 	totalTime 	329.9
scalar RSUExampleScenario.node[119].veinsmobility 	stopTime 	687.1
scalar RSUExampleScenario.node[119].veinsmobility 	minSpeed 	0.25198945256579
scalar RSUExampleScenario.node[119].veinsmobility 	maxSpeed 	13.999987132354
scalar RSUExampleScenario.node[119].veinsmobility 	totalDistance 	3409.91979647
scalar RSUExampleScenario.node[119].veinsmobility 	totalCO2Emission 	752.24637603399
scalar RSUExampleScenario.node[120].veinsmobility 	startTime 	360.1
scalar RSUExampleScenario.node[120].veinsmobility 	totalTime 	330.5
scalar RSUExampleScenario.node[120].veinsmobility 	stopTime 	690.7
scalar RSUExampleScenario.node[120].veinsmobility 	minSpeed 	0.25425723689096
scalar RSUExampleScenario.node[120].veinsmobility 	maxSpeed 	13.999999610754
scalar RSUExampleScenario.node[120].veinsmobility 	totalDistance 	3413.7406823613
scalar RSUExampleScenario.node[120].veinsmobility 	totalCO2Emission 	754.7616697741
scalar RSUExampleScenario.node[121].veinsmobility 	startTime 	363.1
scalar RSUExampleScenario.node[121].veinsmobility 	totalTime 	331.2
scalar RSUExampleScenario.node[121].veinsmobility 	stopTime 	694.4
scalar RSUExampleScenario.node[121].veinsmobility 	minSpeed 	0.25129622943653
scalar RSUExampleScenario.node[121].veinsmobility 	maxSpeed 	13.999990289758
scalar RSUExampleScenario.node[121].veinsmobility 	totalDistance 	3409.7159132693
scalar RSUExampleScenario.node[121].veinsmobility 	totalCO2Emission 	753.21556446335
scalar RSUExampleScenario.node[122].veinsmobility 	startTime 	366.1
scalar RSUExampleScenario.node[122].veinsmobility 	totalTime 	331.9
scalar RSUExampleScenario.node[122].veinsmobility 	stopTime 	698.1
scalar RSUExampleScenario.node[122].veinsmobility 	minSpeed 	0.24831627903087
scalar RSUExampleScenario.node[122].veinsmobility 	maxSpeed 	13.999996787901
scalar RSUExampleScenario.node[122].veinsmobility 	totalDistance 	3413.6129906345
scalar RSUExampleScenario.node[122].veinsmobility 	totalCO2Emission 	751.27045956217
scalar RSUExampleScenario.node[123].veinsmobility 	startTime 	369.1
scalar RSUExampleScenario.node[123].veinsmobility 	totalTime 	332.7
scalar RSUExampleScenario.node[123].veinsmobility 	stopTime 	701.9
scalar RSUExampleScenario.node[123].veinsmobility 	minSpeed 	0.25428577534086
scalar RSUExampleScenario.node[123].veinsmobility 	maxSpeed 	13.999994606215
scalar RSUExampleScenario.node[123].veinsmobility 	totalDistance 	3410.2444854423
scalar RSUExampleScenario.node[123].veinsmobility 	totalCO2Emission 	753.87756865354
scalar RSUExampleScenario.node[124].veinsmobility 	startTime 	372.1
scalar RSUExampleScenario.node[124].veinsmobility 	totalTime 	333.4
scalar RSUExampleScenario.node[124].veinsmobility 	stopTime 	705.6
scalar RSUExampleScenario.node[124].veinsmobility 	minSpeed 	0.24953294120287
scalar RSUExampleScenario.node[124].veinsmobility 	maxSpeed 	13.999924720014
scalar RSUExampleScenario.node[124].veinsmobility 	totalDistance 	3414.051085324
scalar RSUExampleScenario.node[124].veinsmobility 	totalCO2Emission 	755.16808389406
scalar RSUExampleScenario.node[125].veinsmobility 	startTime 	375.1
scalar RSUExampleScenario.node[125].veinsmobility 	totalTime 	334.1
scalar RSUExampleScenario.node[125].veinsmobility 	stopTime 	709.3
scalar RSUExampleScenario.node[125].veinsmobility 	minSpeed 	0.25315044896165
scalar RSUExampleScenario.node[125].veinsmobility 	maxSpeed 	13.99991586
scalar RSUExampleScenario.node[125].veinsmobility 	totalDistance 	3409.73057906
scalar RSUExampleScenario.node[125].veinsmobility 	totalCO2Emission 	756.21622812572
scalar RSUExampleScenario.node[126].veinsmobility 	startTime 	378.1
scalar RSUExampleScenario.node[126].veinsmobility 	totalTime 	334.7
scalar RSUExampleScenario.node[126].veinsmobility 	stopTime 	712.9
scalar RSUExampleScenario.node[126].veinsmobility 	minSpeed 	0.25911537086521
scalar RSUExampleScenario.node[126].veinsmobility 	maxSpeed 	13.999986394874
scalar RSUExampleScenario.node[126].veinsmobility 	totalDistance 	3413.9242783805
scalar RSUExampleScenario.node[126].veinsmobility 	totalCO2Emission 	757.91320017594
scalar RSUExampleScenario.node[127].veinsmobility 	startTime 	381.1
scalar RSUExampleScenario.node[127].veinsmobility 	totalTime 	335.4
scalar RSUExampleScenario.node[127].veinsmobility 	stopTime 	716.6
scalar RSUExampleScenario.node[127].veinsmobility 	minSpeed 	0.25931373711163
scalar RSUExampleScenario.node[127].veinsmobility 	maxSpeed 	13.999971688055
scalar RSUExampleScenario.node[127].veinsmobility 	totalDistance 	3409.7834023118
scalar RSUExampleScenario.node[127].veinsmobility 	totalCO2Emission 	757.13367967975
scalar RSUExampleScenario.node[128].veinsmobility 	startTime 	384.1
scalar RSUExampleScenario.node[128].veinsmobility 	totalTime 	336
scalar RSUExampleScenario.node[128].veinsmobility 	stopTime 	720.2
scalar RSUExampleScenario.node[128].veinsmobility 	minSpeed 	0.25390732722543
scalar RSUExampleScenario.node[128].veinsmobility 	maxSpeed 	13.999813197961
scalar RSUExampleScenario.node[128].veinsmobility 	totalDistance 	3413.6518183056
scalar RSUExampleScenario.node[128].veinsmobility 	totalCO2Emission 	759.35277844143
scalar RSUExampleScenario.node[129].veinsmobility 	startTime 	387.1
scalar RSUExampleScenario.node[129].veinsmobility 	totalTime 	336.7
scalar RSUExampleScenario.node[129].veinsmobility 	stopTime 	723.9
scalar RSUExampleScenario.node[129].veinsmobility 	minSpeed 	0.25401413644734
scalar RSUExampleScenario.node[129].veinsmobility 	maxSpeed 	13.999898306567
scalar RSUExampleScenario.node[129].veinsmobility 	totalDistance 	3409.7036941301
scalar RSUExampleScenario.node[129].veinsmobility 	totalCO2Emission 	763.10977756323
scalar RSUExampleScenario.node[130].veinsmobility 	startTime 	390.1
scalar RSUExampleScenario.node[130].veinsmobility 	totalTime 	337.4
scalar RSUExampleScenario.node[130].veinsmobility 	stopTime 	727.6
scalar RSUExampleScenario.node[130].veinsmobility 	minSpeed 	0.24978572749812
scalar RSUExampleScenario.node[130].veinsmobility 	maxSpeed 	13.999995809307
scalar RSUExampleScenario.node[130].veinsmobility 	totalDistance 	3413.9957938752
scalar RSUExampleScenario.node[130].veinsmobility 	totalCO2Emission 	758.64756517846
scalar RSUExampleScenario.node[131].veinsmobility 	startTime 	393.1
scalar RSUExampleScenario.node[131].veinsmobility 	totalTime 	338.1
scalar RSUExampleScenario.node[131].veinsmobility 	stopTime 	731.3
scalar RSUExampleScenario.node[131].veinsmobility 	minSpeed 	0.25468430918129
scalar RSUExampleScenario.node[131].veinsmobility 	maxSpeed 	13.999950291344
scalar RSUExampleScenario.node[131].veinsmobility 	totalDistance 	3409.723784522
scalar RSUExampleScenario.node[131].veinsmobility 	totalCO2Emission 	759.33355310141
scalar RSUExampleScenario.node[132].veinsmobility 	startTime 	396.1
scalar RSUExampleScenario.node[132].veinsmobility 	totalTime 	338.8
scalar RSUExampleScenario.node[132].veinsmobility 	stopTime 	735
scalar RSUExampleScenario.node[132].veinsmobility 	minSpeed 	0.24713220302807
scalar RSUExampleScenario.node[132].veinsmobility 	maxSpeed 	13.99987687753
scalar RSUExampleScenario.node[132].veinsmobility 	totalDistance 	3413.8117152637
scalar RSUExampleScenario.node[132].veinsmobility 	totalCO2Emission 	762.07102249848
scalar RSUExampleScenario.node[133].veinsmobility 	startTime 	399.1
scalar RSUExampleScenario.node[133].veinsmobility 	totalTime 	339.5
scalar RSUExampleScenario.node[133].veinsmobility 	stopTime 	738.7
scalar RSUExampleScenario.node[133].veinsmobility 	minSpeed 	0.25660440470278
scalar RSUExampleScenario.node[133].veinsmobility 	maxSpeed 	13.999896999232
scalar RSUExampleScenario.node[133].veinsmobility 	totalDistance 	3409.6519897518
scalar RSUExampleScenario.node[133].veinsmobility 	totalCO2Emission 	766.44844546514
scalar RSUExampleScenario.node[134].veinsmobility 	startTime 	402.1
scalar RSUExampleScenario.node[134].veinsmobility 	totalTime 	340.2
scalar RSUExampleScenario.node[134].veinsmobility 	stopTime 	742.4
scalar RSUExampleScenario.node[134].veinsmobility 	minSpeed 	0.25062364693824
scalar RSUExampleScenario.node[134].veinsmobility 	maxSpeed 	13.999988048929
scalar RSUExampleScenario.node[134].veinsmobility 	totalDistance 	3413.8477447493
scalar RSUExampleScenario.node[134].veinsmobility 	totalCO2Emission 	759.50572496507
scalar RSUExampleScenario.node[135].veinsmobility 	startTime 	405.1
scalar RSUExampleScenario.node[135].veinsmobility 	totalTime 	340.9
scalar RSUExampleScenario.node[135].veinsmobility 	stopTime 	746.1
scalar RSUExampleScenario.node[135].veinsmobility 	minSpeed 	0.25637245603465
scalar RSUExampleScenario.node[135].veinsmobility 	maxSpeed 	13.999970165726
scalar RSUExampleScenario.node[135].veinsmobility 	totalDistance 	3409.7547100352
scalar RSUExampleScenario.node[135].veinsmobility 	totalCO2Emission 	761.64923992326
scalar RSUExampleScenario.node[136].veinsmobility 	startTime 	408.1
scalar RSUExampleScenario.node[136].veinsmobility 	totalTime 	341.6
scalar RSUExampleScenario.node[136].veinsmobility 	stopTime 	749.8
scalar RSUExampleScenario.node[136].veinsmobility 	minSpeed 	0.25576563960849
scalar RSUExampleScenario.node[136].veinsmobility 	maxSpeed 	13.999889000191
scalar RSUExampleScenario.node[136].veinsmobility 	totalDistance 	3414.2752443893
scalar RSUExampleScenario.node[136].veinsmobility 	totalCO2Emission 	759.54812851416
scalar RSUExampleScenario.node[137].veinsmobility 	startTime 	411.1
scalar RSUExampleScenario.node[137].veinsmobility 	totalTime 	342.4
scalar RSUExampleScenario.node[137].veinsmobility 	stopTime 	753.6
scalar RSUExampleScenario.node[137].veinsmobility 	minSpeed 	0.25206728980644
scalar RSUExampleScenario.node[137].veinsmobility 	maxSpeed 	13.999999170173
scalar RSUExampleScenario.node[137].veinsmobility 	totalDistance 	3410.1096547723
scalar RSUExampleScenario.node[137].veinsmobility 	totalCO2Emission 	765.35744710555
scalar RSUExampleScenario.node[138].veinsmobility 	startTime 	414.1
scalar RSUExampleScenario.node[138].veinsmobility 	totalTime 	343.2
scalar RSUExampleScenario.node[138].veinsmobility 	stopTime 	757.4
scalar RSUExampleScenario.node[138].veinsmobility 	minSpeed 	0.25208755760547
scalar RSUExampleScenario.node[138].veinsmobility 	maxSpeed 	13.999981994273
scalar RSUExampleScenario.node[138].veinsmobility 	totalDistance 	3414.3614102632
scalar RSUExampleScenario.node[138].veinsmobility 	totalCO2Emission 	762.27073692011
scalar RSUExampleScenario.node[139].veinsmobility 	startTime 	417.1
scalar RSUExampleScenario.node[139].veinsmobility 	totalTime 	343.8
scalar RSUExampleScenario.node[139].veinsmobility 	stopTime 	761
scalar RSUExampleScenario.node[139].veinsmobility 	minSpeed 	0.25279343315144
scalar RSUExampleScenario.node[139].veinsmobility 	maxSpeed 	13.999981984738
scalar RSUExampleScenario.node[139].veinsmobility 	totalDistance 	3409.6644058135
scalar RSUExampleScenario.node[139].veinsmobility 	totalCO2Emission 	766.8171759699
scalar RSUExampleScenario.node[140].veinsmobility 	startTime 	420.1
scalar RSUExampleScenario.node[140].veinsmobility 	totalTime 	344.5
scalar RSUExampleScenario.node[140].veinsmobility 	stopTime 	764.7
scalar RSUExampleScenario.node[140].veinsmobility 	minSpeed 	0.24768587981071
scalar RSUExampleScenario.node[140].veinsmobility 	maxSpeed 	13.999961266455
scalar RSUExampleScenario.node[140].veinsmobility 	totalDistance 	3413.7723667636
scalar RSUExampleScenario.node[140].veinsmobility 	totalCO2Emission 	765.69677985291
scalar RSUExampleScenario.node[141].veinsmobility 	startTime 	423.1
scalar RSUExampleScenario.node[141].veinsmobility 	totalTime 	345.2
scalar RSUExampleScenario.node[141].veinsmobility 	stopTime 	768.4
scalar RSUExampleScenario.node[141].veinsmobility 	minSpeed 	0.25870349123515
scalar RSUExampleScenario.node[141].veinsmobility 	maxSpeed 	13.999943455986
scalar RSUExampleScenario.node[141].veinsmobility 	totalDistance 	3410.0761318899
scalar RSUExampleScenario.node[141].veinsmobility 	totalCO2Emission 	768.34580112012
scalar RSUExampleScenario.node[142].veinsmobility 	startTime 	426.1
scalar RSUExampleScenario.node[142].veinsmobility 	totalTime 	345.9
scalar RSUExampleScenario.node[142].veinsmobility 	stopTime 	772.1
scalar RSUExampleScenario.node[142].veinsmobility 	minSpeed 	0.25975296302047
scalar RSUExampleScenario.node[142].veinsmobility 	maxSpeed 	13.99997768735
scalar RSUExampleScenario.node[142].veinsmobility 	totalDistance 	3413.7696399259
scalar RSUExampleScenario.node[142].veinsmobility 	totalCO2Emission 	766.18683180864
scalar RSUExampleScenario.node[143].veinsmobility 	startTime 	429.1
scalar RSUExampleScenario.node[143].veinsmobility 	totalTime 	346.5
scalar RSUExampleScenario.node[143].veinsmobility 	stopTime 	775.7
scalar RSUExampleScenario.node[143].veinsmobility 	minSpeed 	0.25592090243613
scalar RSUExampleScenario.node[143].veinsmobility 	maxSpeed 	13.999816943351
scalar RSUExampleScenario.node[143].veinsmobility 	totalDistance 	3409.6668492248
scalar RSUExampleScenario.node[143].veinsmobility 	totalCO2Emission 	770.24636003174
scalar RSUExampleScenario.node[144].veinsmobility 	startTime 	432.1
scalar RSUExampleScenario.node[144].veinsmobility 	totalTime 	347.2
scalar RSUExampleScenario.node[144].veinsmobility 	stopTime 	779.4
scalar RSUExampleScenario.node[144].veinsmobility 	minSpeed 	0.25112896302273
scalar RSUExampleScenario.node[144].veinsmobility 	maxSpeed 	13.999885200621
scalar RSUExampleScenario.node[144].veinsmobility 	totalDistance 	3413.7791937975
scalar RSUExampleScenario.node[144].veinsmobility 	totalCO2Emission 	772.77706048075
scalar RSUExampleScenario.node[145].veinsmobility 	startTime 	435.1
scalar RSUExampleScenario.node[145].veinsmobility 	totalTime 	347.9
scalar RSUExampleScenario.node[145].veinsmobility 	stopTime 	783.1
scalar RSUExampleScenario.node[145].veinsmobility 	minSpeed 	0.25056545013213
scalar RSUExampleScenario.node[145].veinsmobility 	maxSpeed 	13.999994237672
scalar RSUExampleScenario.node[145].veinsmobility 	totalDistance 	3409.6293441739
scalar RSUExampleScenario.node[145].veinsmobility 	totalCO2Emission 	765.87798179291
scalar RSUExampleScenario.node[146].veinsmobility 	startTime 	438.1
scalar RSUExampleScenario.node[146].veinsmobility 	totalTime 	348.6
scalar RSUExampleScenario.node[146].veinsmobility 	stopTime 	786.8
scalar RSUExampleScenario.node[146].veinsmobility 	minSpeed 	0.25796360595012
scalar RSUExampleScenario.node[146].veinsmobility 	maxSpeed 	13.999963064434
scalar RSUExampleScenario.node[146].veinsmobility 	totalDistance 	3413.8118349625
scalar RSUExampleScenario.node[146].veinsmobility 	totalCO2Emission 	769.05339067593
scalar RSUExampleScenario.node[147].veinsmobility 	startTime 	441.1
scalar RSUExampleScenario.node[147].veinsmobility 	totalTime 	349.3
scalar RSUExampleScenario.node[147].veinsmobility 	stopTime 	790.5
scalar RSUExampleScenario.node[147].veinsmobility 	minSpeed 	0.25835080228467
scalar RSUExampleScenario.node[147].veinsmobility 	maxSpeed 	13.999895882192
scalar RSUExampleScenario.node[147].veinsmobility 	totalDistance 	3409.8886763848
scalar RSUExampleScenario.node[147].veinsmobility 	totalCO2Emission 	769.31763700071
scalar RSUExampleScenario.node[148].veinsmobility 	startTime 	444.1
scalar RSUExampleScenario.node[148].veinsmobility 	totalTime 	350
scalar RSUExampleScenario.node[148].veinsmobility 	stopTime 	794.2
scalar RSUExampleScenario.node[148].veinsmobility 	minSpeed 	0.25905336806295
scalar RSUExampleScenario.node[148].veinsmobility 	maxSpeed 	13.999858992905
scalar RSUExampleScenario.node[148].veinsmobility 	totalDistance 	3413.8112733897
scalar RSUExampleScenario.node[148].veinsmobility 	totalCO2Emission 	770.68347449933
scalar RSUExampleScenario.node[149].veinsmobility 	startTime 	447.1
scalar RSUExampleScenario.node[149].veinsmobility 	totalTime 	350.7
scalar RSUExampleScenario.node[149].veinsmobility 	stopTime 	797.9
scalar RSUExampleScenario.node[149].veinsmobility 	minSpeed 	0.25499493293208
scalar RSUExampleScenario.node[149].veinsmobility 	maxSpeed 	13.99993963093
scalar RSUExampleScenario.node[149].veinsmobility 	totalDistance 	3410.2877480239
scalar RSUExampleScenario.node[149].veinsmobility 	totalCO2Emission 	769.91938155295
scalar RSUExampleScenario.node[150].veinsmobility 	startTime 	450.1
scalar RSUExampleScenario.node[150].veinsmobility 	totalTime 	351.5
scalar RSUExampleScenario.node[150].veinsmobility 	stopTime 	801.7
scalar RSUExampleScenario.node[150].veinsmobility 	minSpeed 	0.25734689419065
scalar RSUExampleScenario.node[150].veinsmobility 	maxSpeed 	13.999996851948
scalar RSUExampleScenario.node[150].veinsmobility 	totalDistance 	3414.1176620417
scalar RSUExampleScenario.node[150].veinsmobility 	totalCO2Emission 	770.32310068579
scalar RSUExampleScenario.node[151].veinsmobility 	startTime 	453.1
scalar RSUExampleScenario.node[151].veinsmobility 	totalTime 	352.2
scalar RSUExampleScenario.node[151].veinsmobility 	stopTime 	805.4
scalar RSUExampleScenario.node[151].veinsmobility 	minSpeed 	0.25631550207734
scalar RSUExampleScenario.node[151].veinsmobility 	maxSpeed 	13.999884507605
scalar RSUExampleScenario.node[151].veinsmobility 	totalDistance 	3409.8992816209
scalar RSUExampleScenario.node[151].veinsmobility 	totalCO2Emission 	772.35062053292
scalar RSUExampleScenario.node[152].veinsmobility 	startTime 	456.1
scalar RSUExampleScenario.node[152].veinsmobility 	totalTime 	352.9
scalar RSUExampleScenario.node[152].veinsmobility 	stopTime 	809.1
scalar RSUExampleScenario.node[152].veinsmobility 	minSpeed 	0.24838336983882
scalar RSUExampleScenario.node[152].veinsmobility 	maxSpeed 	13.999969266192
scalar RSUExampleScenario.node[152].veinsmobility 	totalDistance 	3413.9107607198
[...]
scalar RSUExampleScenario.node[628].veinsmobility 	totalCO2Emission 	326.64786587299
scalar RSUExampleScenario.node[629].veinsmobility 	startTime 	1887.1
scalar RSUExampleScenario.node[629].veinsmobility 	totalTime 	112.8
scalar RSUExampleScenario.node[629].veinsmobility 	stopTime 	2000
scalar RSUExampleScenario.node[629].veinsmobility 	minSpeed 	0.25996168418624
scalar RSUExampleScenario.node[629].veinsmobility 	maxSpeed 	13.999710782666
scalar RSUExampleScenario.node[629].veinsmobility 	totalDistance 	1363.1864291433
scalar RSUExampleScenario.node[629].veinsmobility 	totalCO2Emission 	316.5566719512
scalar RSUExampleScenario.node[630].veinsmobility 	startTime 	1890.1
scalar RSUExampleScenario.node[630].veinsmobility 	totalTime 	109.8
scalar RSUExampleScenario.node[630].veinsmobility 	stopTime 	2000
scalar RSUExampleScenario.node[630].veinsmobility 	minSpeed 	0.24891421226691
scalar RSUExampleScenario.node[630].veinsmobility 	maxSpeed 	13.999824627514
scalar RSUExampleScenario.node[630].veinsmobility 	totalDistance 	1320.9828456435
scalar RSUExampleScenario.node[630].veinsmobility 	totalCO2Emission 	309.76415611646
scalar RSUExampleScenario.node[631].veinsmobility 	startTime 	1893.1
scalar RSUExampleScenario.node[631].veinsmobility 	totalTime 	106.8
scalar RSUExampleScenario.node[631].veinsmobility 	stopTime 	2000
scalar RSUExampleScenario.node[631].veinsmobility 	minSpeed 	0.25331739243423
scalar RSUExampleScenario.node[631].veinsmobility 	maxSpeed 	13.999848571729
scalar RSUExampleScenario.node[631].veinsmobility 	totalDistance 	1279.2858130982
scalar RSUExampleScenario.node[631].veinsmobility 	totalCO2Emission 	305.21829734998
scalar RSUExampleScenario.node[632].veinsmobility 	startTime 	1896.1
scalar RSUExampleScenario.node[632].veinsmobility 	totalTime 	103.8
scalar RSUExampleScenario.node[632].veinsmobility 	stopTime 	2000
scalar RSUExampleScenario.node[632].veinsmobility 	minSpeed 	0.25448223711061
scalar RSUExampleScenario.node[632].veinsmobility 	maxSpeed 	13.999986111082
scalar RSUExampleScenario.node[632].veinsmobility 	totalDistance 	1235.0928379301
scalar RSUExampleScenario.node[632].veinsmobility 	totalCO2Emission 	297.45034191551
scalar RSUExampleScenario.node[633].veinsmobility 	startTime 	1899.1
scalar RSUExampleScenario.node[633].veinsmobility 	totalTime 	100.8
scalar RSUExampleScenario.node[633].veinsmobility 	stopTime 	2000
scalar RSUExampleScenario.node[633].veinsmobility 	minSpeed 	0.24955675883708
scalar RSUExampleScenario.node[633].veinsmobility 	maxSpeed 	13.99965774765
scalar RSUExampleScenario.node[633].veinsmobility 	totalDistance 	1195.3724075439
scalar RSUExampleScenario.node[633].veinsmobility 	totalCO2Emission 	289.53742373515
scalar RSUExampleScenario.node[634].veinsmobility 	startTime 	1902.1
scalar RSUExampleScenario.node[634].veinsmobility 	totalTime 	97.8
scalar RSUExampleScenario.node[634].veinsmobility 	stopTime 	2000
scalar RSUExampleScenario.node[634].veinsmobility 	minSpeed 	0.25757366679446
scalar RSUExampleScenario.node[634].veinsmobility 	maxSpeed 	13.999834250524
scalar RSUExampleScenario.node[634].veinsmobility 	totalDistance 	1153.1266341212
scalar RSUExampleScenario.node[634].veinsmobility 	totalCO2Emission 	282.30094397597
scalar RSUExampleScenario.node[635].veinsmobility 	startTime 	1905.1
scalar RSUExampleScenario.node[635].veinsmobility 	totalTime 	94.8
scalar RSUExampleScenario.node[635].veinsmobility 	stopTime 	2000
scalar RSUExampleScenario.node[635].veinsmobility 	minSpeed 	0.24794885541406
scalar RSUExampleScenario.node[635].veinsmobility 	maxSpeed 	13.999522846395
scalar RSUExampleScenario.node[635].veinsmobility 	totalDistance 	1109.9700329768
scalar RSUExampleScenario.node[635].veinsmobility 	totalCO2Emission 	275.77532144595
scalar RSUExampleScenario.node[636].veinsmobility 	startTime 	1908.1
scalar RSUExampleScenario.node[636].veinsmobility 	totalTime 	91.8
scalar RSUExampleScenario.node[636].veinsmobility 	stopTime 	2000
scalar RSUExampleScenario.node[636].veinsmobility 	minSpeed 	0.25186490363278
scalar RSUExampleScenario.node[636].veinsmobility 	maxSpeed 	13.999832673531
scalar RSUExampleScenario.node[636].veinsmobility 	totalDistance 	1069.9634851701
scalar RSUExampleScenario.node[636].veinsmobility 	totalCO2Emission 	266.85510319886
scalar RSUExampleScenario.node[637].veinsmobility 	startTime 	1911.1
scalar RSUExampleScenario.node[637].veinsmobility 	totalTime 	88.8
scalar RSUExampleScenario.node[637].veinsmobility 	stopTime 	2000
scalar RSUExampleScenario.node[637].veinsmobility 	minSpeed 	0.25498712521186
scalar RSUExampleScenario.node[637].veinsmobility 	maxSpeed 	13.999860885229
scalar RSUExampleScenario.node[637].veinsmobility 	totalDistance 	1029.2296043521
scalar RSUExampleScenario.node[637].veinsmobility 	totalCO2Emission 	260.66266296281
scalar RSUExampleScenario.node[638].veinsmobility 	startTime 	1914.1
scalar RSUExampleScenario.node[638].veinsmobility 	totalTime 	85.8
scalar RSUExampleScenario.node[638].veinsmobility 	stopTime 	2000
scalar RSUExampleScenario.node[638].veinsmobility 	minSpeed 	0.25609903965681
scalar RSUExampleScenario.node[638].veinsmobility 	maxSpeed 	13.999978355758
scalar RSUExampleScenario.node[638].veinsmobility 	totalDistance 	988.06972018015
scalar RSUExampleScenario.node[638].veinsmobility 	totalCO2Emission 	251.78159847716
scalar RSUExampleScenario.node[639].veinsmobility 	startTime 	1917.1
scalar RSUExampleScenario.node[639].veinsmobility 	totalTime 	82.8
scalar RSUExampleScenario.node[639].veinsmobility 	stopTime 	2000
scalar RSUExampleScenario.node[639].veinsmobility 	minSpeed 	0.25866765517136
scalar RSUExampleScenario.node[639].veinsmobility 	maxSpeed 	13.999735850731
scalar RSUExampleScenario.node[639].veinsmobility 	totalDistance 	954.32961386829
scalar RSUExampleScenario.node[639].veinsmobility 	totalCO2Emission 	234.33482107371
scalar RSUExampleScenario.node[640].veinsmobility 	startTime 	1920.1
scalar RSUExampleScenario.node[640].veinsmobility 	totalTime 	79.8
scalar RSUExampleScenario.node[640].veinsmobility 	stopTime 	2000
scalar RSUExampleScenario.node[640].veinsmobility 	minSpeed 	0.25759787760978
scalar RSUExampleScenario.node[640].veinsmobility 	maxSpeed 	13.999974036093
scalar RSUExampleScenario.node[640].veinsmobility 	totalDistance 	937.57496573165
scalar RSUExampleScenario.node[640].veinsmobility 	totalCO2Emission 	223.38460093417
scalar RSUExampleScenario.node[641].veinsmobility 	startTime 	1923.1
scalar RSUExampleScenario.node[641].veinsmobility 	totalTime 	76.8
scalar RSUExampleScenario.node[641].veinsmobility 	stopTime 	2000
scalar RSUExampleScenario.node[641].veinsmobility 	minSpeed 	0.25601999559836
scalar RSUExampleScenario.node[641].veinsmobility 	maxSpeed 	13.999775170567
scalar RSUExampleScenario.node[641].veinsmobility 	totalDistance 	912.92115764201
scalar RSUExampleScenario.node[641].veinsmobility 	totalCO2Emission 	218.80412987829
scalar RSUExampleScenario.node[642].veinsmobility 	startTime 	1926.1
scalar RSUExampleScenario.node[642].veinsmobility 	totalTime 	73.8
scalar RSUExampleScenario.node[642].veinsmobility 	stopTime 	2000
scalar RSUExampleScenario.node[642].veinsmobility 	minSpeed 	0.25780424533389
scalar RSUExampleScenario.node[642].veinsmobility 	maxSpeed 	13.999677477987
scalar RSUExampleScenario.node[642].veinsmobility 	totalDistance 	873.78964752149
scalar RSUExampleScenario.node[642].veinsmobility 	totalCO2Emission 	213.93027542244
scalar RSUExampleScenario.node[643].veinsmobility 	startTime 	1929.1
scalar RSUExampleScenario.node[643].veinsmobility 	totalTime 	70.8
scalar RSUExampleScenario.node[643].veinsmobility 	stopTime 	2000
scalar RSUExampleScenario.node[643].veinsmobility 	minSpeed 	0.25871801300859
scalar RSUExampleScenario.node[643].veinsmobility 	maxSpeed 	13.999818263913
scalar RSUExampleScenario.node[643].veinsmobility 	totalDistance 	830.61650078245
scalar RSUExampleScenario.node[643].veinsmobility 	totalCO2Emission 	206.71882586821
scalar RSUExampleScenario.node[644].veinsmobility 	startTime 	1932.1
scalar RSUExampleScenario.node[644].veinsmobility 	totalTime 	67.8
scalar RSUExampleScenario.node[644].veinsmobility 	stopTime 	2000
scalar RSUExampleScenario.node[644].veinsmobility 	minSpeed 	0.25207403768715
scalar RSUExampleScenario.node[644].veinsmobility 	maxSpeed 	13.999877432645
scalar RSUExampleScenario.node[644].veinsmobility 	totalDistance 	790.41886301458
scalar RSUExampleScenario.node[644].veinsmobility 	totalCO2Emission 	199.94828688359
scalar RSUExampleScenario.node[645].veinsmobility 	startTime 	1935.1
scalar RSUExampleScenario.node[645].veinsmobility 	totalTime 	64.8
scalar RSUExampleScenario.node[645].veinsmobility 	stopTime 	2000
scalar RSUExampleScenario.node[645].veinsmobility 	minSpeed 	0.24713030783762
scalar RSUExampleScenario.node[645].veinsmobility 	maxSpeed 	13.999765038118
scalar RSUExampleScenario.node[645].veinsmobility 	totalDistance 	747.06963120601
scalar RSUExampleScenario.node[645].veinsmobility 	totalCO2Emission 	192.67521383904
scalar RSUExampleScenario.node[646].veinsmobility 	startTime 	1938.1
scalar RSUExampleScenario.node[646].veinsmobility 	totalTime 	61.8
scalar RSUExampleScenario.node[646].veinsmobility 	stopTime 	2000
scalar RSUExampleScenario.node[646].veinsmobility 	minSpeed 	0.24796202534367
scalar RSUExampleScenario.node[646].veinsmobility 	maxSpeed 	13.999985472336
scalar RSUExampleScenario.node[646].veinsmobility 	totalDistance 	704.76291691439
scalar RSUExampleScenario.node[646].veinsmobility 	totalCO2Emission 	184.28063583851
scalar RSUExampleScenario.node[647].veinsmobility 	startTime 	1941.1
scalar RSUExampleScenario.node[647].veinsmobility 	totalTime 	58.8
scalar RSUExampleScenario.node[647].veinsmobility 	stopTime 	2000
scalar RSUExampleScenario.node[647].veinsmobility 	minSpeed 	0.25415519528207
scalar RSUExampleScenario.node[647].veinsmobility 	maxSpeed 	13.999445513785
scalar RSUExampleScenario.node[647].veinsmobility 	totalDistance 	663.72081164221
scalar RSUExampleScenario.node[647].veinsmobility 	totalCO2Emission 	179.13747992157
scalar RSUExampleScenario.node[648].veinsmobility 	startTime 	1944.1
scalar RSUExampleScenario.node[648].veinsmobility 	totalTime 	55.8
scalar RSUExampleScenario.node[648].veinsmobility 	stopTime 	2000
scalar RSUExampleScenario.node[648].veinsmobility 	minSpeed 	0.25767754461057
scalar RSUExampleScenario.node[648].veinsmobility 	maxSpeed 	13.999370578642
scalar RSUExampleScenario.node[648].veinsmobility 	totalDistance 	621.94190409211
scalar RSUExampleScenario.node[648].veinsmobility 	totalCO2Emission 	170.70664721706
scalar RSUExampleScenario.node[649].veinsmobility 	startTime 	1947.1
scalar RSUExampleScenario.node[649].veinsmobility 	totalTime 	52.8
scalar RSUExampleScenario.node[649].veinsmobility 	stopTime 	2000
scalar RSUExampleScenario.node[649].veinsmobility 	minSpeed 	0.24877898580325
scalar RSUExampleScenario.node[649].veinsmobility 	maxSpeed 	13.999191506319
scalar RSUExampleScenario.node[649].veinsmobility 	totalDistance 	578.75717217932
scalar RSUExampleScenario.node[649].veinsmobility 	totalCO2Emission 	164.18294153617
scalar RSUExampleScenario.node[650].veinsmobility 	startTime 	1950.1
scalar RSUExampleScenario.node[650].veinsmobility 	totalTime 	49.8
scalar RSUExampleScenario.node[650].veinsmobility 	stopTime 	2000
scalar RSUExampleScenario.node[650].veinsmobility 	minSpeed 	0.25412068765284
scalar RSUExampleScenario.node[650].veinsmobility 	maxSpeed 	13.999746300934
scalar RSUExampleScenario.node[650].veinsmobility 	totalDistance 	539.53297917382
scalar RSUExampleScenario.node[650].veinsmobility 	totalCO2Emission 	157.32748758727
scalar RSUExampleScenario.node[651].veinsmobility 	startTime 	1953.1
scalar RSUExampleScenario.node[651].veinsmobility 	totalTime 	46.8
scalar RSUExampleScenario.node[651].veinsmobility 	stopTime 	2000
scalar RSUExampleScenario.node[651].veinsmobility 	minSpeed 	0.24852733624633
scalar RSUExampleScenario.node[651].veinsmobility 	maxSpeed 	13.999055908809
scalar RSUExampleScenario.node[651].veinsmobility 	totalDistance 	497.24238107013
scalar RSUExampleScenario.node[651].veinsmobility 	totalCO2Emission 	151.77555240303
scalar RSUExampleScenario.node[652].veinsmobility 	startTime 	1956.1
scalar RSUExampleScenario.node[652].veinsmobility 	totalTime 	43.8
scalar RSUExampleScenario.node[652].veinsmobility 	stopTime 	2000
scalar RSUExampleScenario.node[652].veinsmobility 	minSpeed 	0.25678087291052
scalar RSUExampleScenario.node[652].veinsmobility 	maxSpeed 	13.99958438853
scalar RSUExampleScenario.node[652].veinsmobility 	totalDistance 	455.67283785875
scalar RSUExampleScenario.node[652].veinsmobility 	totalCO2Emission 	142.62243585115
scalar RSUExampleScenario.node[653].veinsmobility 	startTime 	1959.1
scalar RSUExampleScenario.node[653].veinsmobility 	totalTime 	40.8
scalar RSUExampleScenario.node[653].veinsmobility 	stopTime 	2000
scalar RSUExampleScenario.node[653].veinsmobility 	minSpeed 	0.25215644424921
scalar RSUExampleScenario.node[653].veinsmobility 	maxSpeed 	13.99823289721
scalar RSUExampleScenario.node[653].veinsmobility 	totalDistance 	413.09278443271
scalar RSUExampleScenario.node[653].veinsmobility 	totalCO2Emission 	135.82497006336
scalar RSUExampleScenario.node[654].veinsmobility 	startTime 	1962.1
scalar RSUExampleScenario.node[654].veinsmobility 	totalTime 	37.8
scalar RSUExampleScenario.node[654].veinsmobility 	stopTime 	2000
scalar RSUExampleScenario.node[654].veinsmobility 	minSpeed 	0.25256362652429
scalar RSUExampleScenario.node[654].veinsmobility 	maxSpeed 	13.999689840975
scalar RSUExampleScenario.node[654].veinsmobility 	totalDistance 	371.55687905405
scalar RSUExampleScenario.node[654].veinsmobility 	totalCO2Emission 	130.56921178378
scalar RSUExampleScenario.node[655].veinsmobility 	startTime 	1965.1
scalar RSUExampleScenario.node[655].veinsmobility 	totalTime 	34.8
scalar RSUExampleScenario.node[655].veinsmobility 	stopTime 	2000
scalar RSUExampleScenario.node[655].veinsmobility 	minSpeed 	0.2477092448629
scalar RSUExampleScenario.node[655].veinsmobility 	maxSpeed 	13.98928820268
scalar RSUExampleScenario.node[655].veinsmobility 	totalDistance 	330.0527153178
scalar RSUExampleScenario.node[655].veinsmobility 	totalCO2Emission 	123.09906004556
scalar RSUExampleScenario.node[656].veinsmobility 	startTime 	1968.1
scalar RSUExampleScenario.node[656].veinsmobility 	totalTime 	31.8
scalar RSUExampleScenario.node[656].veinsmobility 	stopTime 	2000
scalar RSUExampleScenario.node[656].veinsmobility 	minSpeed 	0.24937105344003
scalar RSUExampleScenario.node[656].veinsmobility 	maxSpeed 	13.995873141156
scalar RSUExampleScenario.node[656].veinsmobility 	totalDistance 	287.33818889999
scalar RSUExampleScenario.node[656].veinsmobility 	totalCO2Emission 	115.02506136462
scalar RSUExampleScenario.node[657].veinsmobility 	startTime 	1971.1
scalar RSUExampleScenario.node[657].veinsmobility 	totalTime 	28.8
scalar RSUExampleScenario.node[657].veinsmobility 	stopTime 	2000
scalar RSUExampleScenario.node[657].veinsmobility 	minSpeed 	0.25179848623904
scalar RSUExampleScenario.node[657].veinsmobility 	maxSpeed 	13.879523369204
scalar RSUExampleScenario.node[657].veinsmobility 	totalDistance 	248.26395235334
scalar RSUExampleScenario.node[657].veinsmobility 	totalCO2Emission 	98.962489741588
scalar RSUExampleScenario.node[658].veinsmobility 	startTime 	1974.1
scalar RSUExampleScenario.node[658].veinsmobility 	totalTime 	25.8
scalar RSUExampleScenario.node[658].veinsmobility 	stopTime 	2000
scalar RSUExampleScenario.node[658].veinsmobility 	minSpeed 	0.24772798842983
scalar RSUExampleScenario.node[658].veinsmobility 	maxSpeed 	13.889258043822
scalar RSUExampleScenario.node[658].veinsmobility 	totalDistance 	225.69527277144
scalar RSUExampleScenario.node[658].veinsmobility 	totalCO2Emission 	82.664327454545
scalar RSUExampleScenario.node[659].veinsmobility 	startTime 	1977.1
scalar RSUExampleScenario.node[659].veinsmobility 	totalTime 	22.8
scalar RSUExampleScenario.node[659].veinsmobility 	stopTime 	2000
scalar RSUExampleScenario.node[659].veinsmobility 	minSpeed 	0.25284314680425
scalar RSUExampleScenario.node[659].veinsmobility 	maxSpeed 	13.889022506545
scalar RSUExampleScenario.node[659].veinsmobility 	totalDistance 	207.23895159125
scalar RSUExampleScenario.node[659].veinsmobility 	totalCO2Emission 	78.446020144081
scalar RSUExampleScenario.node[660].veinsmobility 	startTime 	1980.1
scalar RSUExampleScenario.node[660].veinsmobility 	totalTime 	19.8
scalar RSUExampleScenario.node[660].veinsmobility 	stopTime 	2000
scalar RSUExampleScenario.node[660].veinsmobility 	minSpeed 	0.24776260946412
scalar RSUExampleScenario.node[660].veinsmobility 	maxSpeed 	13.882505486307
scalar RSUExampleScenario.node[660].veinsmobility 	totalDistance 	173.9294303851
scalar RSUExampleScenario.node[660].veinsmobility 	totalCO2Emission 	75.05273604303
scalar RSUExampleScenario.node[661].veinsmobility 	startTime 	1983.1
scalar RSUExampleScenario.node[661].veinsmobility 	totalTime 	16.8
scalar RSUExampleScenario.node[661].veinsmobility 	stopTime 	2000
scalar RSUExampleScenario.node[661].veinsmobility 	minSpeed 	0.25808044182602
scalar RSUExampleScenario.node[661].veinsmobility 	maxSpeed 	13.860343341939
scalar RSUExampleScenario.node[661].veinsmobility 	totalDistance 	137.74451202355
scalar RSUExampleScenario.node[661].veinsmobility 	totalCO2Emission 	56.705798496858
scalar RSUExampleScenario.node[662].veinsmobility 	startTime 	1986.1
scalar RSUExampleScenario.node[662].veinsmobility 	totalTime 	13.8
scalar RSUExampleScenario.node[662].veinsmobility 	stopTime 	2000
scalar RSUExampleScenario.node[662].veinsmobility 	minSpeed 	0.24901291645528
scalar RSUExampleScenario.node[662].veinsmobility 	maxSpeed 	13.885429213836
scalar RSUExampleScenario.node[662].veinsmobility 	totalDistance 	116.83417172213
scalar RSUExampleScenario.node[662].veinsmobility 	totalCO2Emission 	42.790308797711
scalar RSUExampleScenario.node[663].veinsmobility 	startTime 	1989.1
scalar RSUExampleScenario.node[663].veinsmobility 	totalTime 	10.8
scalar RSUExampleScenario.node[663].veinsmobility 	stopTime 	2000
scalar RSUExampleScenario.node[663].veinsmobility 	minSpeed 	0.2529668449345
scalar RSUExampleScenario.node[663].veinsmobility 	maxSpeed 	13.887660330597
scalar RSUExampleScenario.node[663].veinsmobility 	totalDistance 	97.263769891946
scalar RSUExampleScenario.node[663].veinsmobility 	totalCO2Emission 	39.233095299159
scalar RSUExampleScenario.node[664].veinsmobility 	startTime 	1992.1
scalar RSUExampleScenario.node[664].veinsmobility 	totalTime 	7.8
scalar RSUExampleScenario.node[664].veinsmobility 	stopTime 	2000
scalar RSUExampleScenario.node[664].veinsmobility 	minSpeed 	0.24991538460436
scalar RSUExampleScenario.node[664].veinsmobility 	maxSpeed 	13.856829139926
scalar RSUExampleScenario.node[664].veinsmobility 	totalDistance 	62.035457331741
scalar RSUExampleScenario.node[664].veinsmobility 	totalCO2Emission 	35.758452344132
scalar RSUExampleScenario.node[665].veinsmobility 	startTime 	1995.1
scalar RSUExampleScenario.node[665].veinsmobility 	totalTime 	4.8
scalar RSUExampleScenario.node[665].veinsmobility 	stopTime 	2000
scalar RSUExampleScenario.node[665].veinsmobility 	minSpeed 	0.25595055488101
scalar RSUExampleScenario.node[665].veinsmobility 	maxSpeed 	9.5120638775306
scalar RSUExampleScenario.node[665].veinsmobility 	totalDistance 	23.866669022004
scalar RSUExampleScenario.node[665].veinsmobility 	totalCO2Emission 	17.590017280256
scalar RSUExampleScenario.node[666].veinsmobility 	startTime 	1998.1
scalar RSUExampleScenario.node[666].veinsmobility 	totalTime 	1.8
scalar RSUExampleScenario.node[666].veinsmobility 	stopTime 	2000
scalar RSUExampleScenario.node[666].veinsmobility 	minSpeed 	0.24869270635583
scalar RSUExampleScenario.node[666].veinsmobility 	maxSpeed 	3.9294367018628
scalar RSUExampleScenario.node[666].veinsmobility 	totalDistance 	3.8858199385791
scalar RSUExampleScenario.node[666].veinsmobility 	totalCO2Emission 	4.0278425609135
