version 2
run statisticRVV-150-20150327-08:43:48-17340
attr c 9
attr configname statisticRVV
attr datetime 20150327-08:43:48
attr experiment statisticRVV
attr inifile omnetpp.ini
attr iterationvars "$sc=\"erlangen-medium.launchd.xml\", $p=1/10, $c=9"
attr iterationvars2 "$sc=\"erlangen-medium.launchd.xml\", $p=1/10, $c=9, $repetition=0"
attr measurement "$sc=\"erlangen-medium.launchd.xml\", $p=1/10, $c=9"
attr network RSUExampleScenario
attr p 1/10
attr processid 17340
attr repetition 0
attr replication #0
attr resultdir results
attr runnumber 150
attr sc "\"erlangen-medium.launchd.xml\""
attr seedset 150

scalar . 	c 	9
scalar RSUExampleScenario.node[0].veinsmobility 	startTime 	0.1
scalar RSUExampleScenario.node[0].veinsmobility 	totalTime 	264.4
scalar RSUExampleScenario.node[0].veinsmobility 	stopTime 	264.6
scalar RSUExampleScenario.node[0].veinsmobility 	minSpeed 	0.24818840887677
scalar RSUExampleScenario.node[0].veinsmobility 	maxSpeed 	13.999996333034
scalar RSUExampleScenario.node[0].veinsmobility 	totalDistance 	3409.7024080134
scalar RSUExampleScenario.node[0].veinsmobility 	totalCO2Emission 	697.2485322317
scalar RSUExampleScenario.node[1].veinsmobility 	startTime 	3.1
scalar RSUExampleScenario.node[1].veinsmobility 	totalTime 	265.5
scalar RSUExampleScenario.node[1].veinsmobility 	stopTime 	268.7
scalar RSUExampleScenario.node[1].veinsmobility 	minSpeed 	0.25050417216332
scalar RSUExampleScenario.node[1].veinsmobility 	maxSpeed 	13.999839842957
scalar RSUExampleScenario.node[1].veinsmobility 	totalDistance 	3409.31904816
scalar RSUExampleScenario.node[1].veinsmobility 	totalCO2Emission 	690.50992555922
scalar RSUExampleScenario.node[2].veinsmobility 	startTime 	6.1
scalar RSUExampleScenario.node[2].veinsmobility 	totalTime 	266
scalar RSUExampleScenario.node[2].veinsmobility 	stopTime 	272.2
scalar RSUExampleScenario.node[2].veinsmobility 	minSpeed 	0.25810554606444
scalar RSUExampleScenario.node[2].veinsmobility 	maxSpeed 	13.999905221257
scalar RSUExampleScenario.node[2].veinsmobility 	totalDistance 	3409.5257661031
scalar RSUExampleScenario.node[2].veinsmobility 	totalCO2Emission 	692.74443567936
scalar RSUExampleScenario.node[3].veinsmobility 	startTime 	9.1
scalar RSUExampleScenario.node[3].veinsmobility 	totalTime 	266.4
scalar RSUExampleScenario.node[3].veinsmobility 	stopTime 	275.6
scalar RSUExampleScenario.node[3].veinsmobility 	minSpeed 	0.24769822155987
scalar RSUExampleScenario.node[3].veinsmobility 	maxSpeed 	13.999883219854
scalar RSUExampleScenario.node[3].veinsmobility 	totalDistance 	3409.6122174368
scalar RSUExampleScenario.node[3].veinsmobility 	totalCO2Emission 	694.31984450014
scalar RSUExampleScenario.node[4].veinsmobility 	startTime 	12.1
scalar RSUExampleScenario.node[4].veinsmobility 	totalTime 	266.7
scalar RSUExampleScenario.node[4].veinsmobility 	stopTime 	278.9
scalar RSUExampleScenario.node[4].veinsmobility 	minSpeed 	0.25618960827123
scalar RSUExampleScenario.node[4].veinsmobility 	maxSpeed 	13.999936474978
scalar RSUExampleScenario.node[4].veinsmobility 	totalDistance 	3409.3370088922
scalar RSUExampleScenario.node[4].veinsmobility 	totalCO2Emission 	692.70491884118
scalar RSUExampleScenario.node[5].veinsmobility 	startTime 	15.1
scalar RSUExampleScenario.node[5].veinsmobility 	totalTime 	266.9
scalar RSUExampleScenario.node[5].veinsmobility 	stopTime 	282.1
scalar RSUExampleScenario.node[5].veinsmobility 	minSpeed 	0.25595291864406
scalar RSUExampleScenario.node[5].veinsmobility 	maxSpeed 	13.999940726056
scalar RSUExampleScenario.node[5].veinsmobility 	totalDistance 	3414.0221756818
scalar RSUExampleScenario.node[5].veinsmobility 	totalCO2Emission 	696.54921505796
scalar RSUExampleScenario.node[6].veinsmobility 	startTime 	18.1
scalar RSUExampleScenario.node[6].veinsmobility 	totalTime 	266.9
scalar RSUExampleScenario.node[6].veinsmobility 	stopTime 	285.1
scalar RSUExampleScenario.node[6].veinsmobility 	minSpeed 	0.25305775343115
scalar RSUExampleScenario.node[6].veinsmobility 	maxSpeed 	13.999914522457
scalar RSUExampleScenario.node[6].veinsmobility 	totalDistance 	3409.6005806717
scalar RSUExampleScenario.node[6].veinsmobility 	totalCO2Emission 	690.66588945404
scalar RSUExampleScenario.node[7].veinsmobility 	startTime 	21.1
scalar RSUExampleScenario.node[7].veinsmobility 	totalTime 	267
scalar RSUExampleScenario.node[7].veinsmobility 	stopTime 	288.2
scalar RSUExampleScenario.node[7].veinsmobility 	minSpeed 	0.25469222628395
scalar RSUExampleScenario.node[7].veinsmobility 	maxSpeed 	13.999959793917
scalar RSUExampleScenario.node[7].veinsmobility 	totalDistance 	3413.4856103496
scalar RSUExampleScenario.node[7].veinsmobility 	totalCO2Emission 	691.55576121384
scalar RSUExampleScenario.node[8].veinsmobility 	startTime 	24.1
scalar RSUExampleScenario.node[8].veinsmobility 	totalTime 	267
scalar RSUExampleScenario.node[8].veinsmobility 	stopTime 	291.2
scalar RSUExampleScenario.node[8].veinsmobility 	minSpeed 	0.25564449907141
scalar RSUExampleScenario.node[8].veinsmobility 	maxSpeed 	13.999909062355
scalar RSUExampleScenario.node[8].veinsmobility 	totalDistance 	3409.625116992
scalar RSUExampleScenario.node[8].veinsmobility 	totalCO2Emission 	694.43809145766
scalar RSUExampleScenario.node[9].veinsmobility 	startTime 	27.1
scalar RSUExampleScenario.node[9].veinsmobility 	totalTime 	267.1
scalar RSUExampleScenario.node[9].veinsmobility 	stopTime 	294.3
scalar RSUExampleScenario.node[9].veinsmobility 	minSpeed 	0.25493905316433
scalar RSUExampleScenario.node[9].veinsmobility 	maxSpeed 	13.999929597215
scalar RSUExampleScenario.node[9].veinsmobility 	totalDistance 	3413.8213919776
scalar RSUExampleScenario.node[9].veinsmobility 	totalCO2Emission 	689.57768236084
scalar RSUExampleScenario.node[10].veinsmobility 	startTime 	30.1
scalar RSUExampleScenario.node[10].veinsmobility 	totalTime 	267.1
scalar RSUExampleScenario.node[10].veinsmobility 	stopTime 	297.3
scalar RSUExampleScenario.node[10].veinsmobility 	minSpeed 	0.25157585789729
scalar RSUExampleScenario.node[10].veinsmobility 	maxSpeed 	13.999966732641
scalar RSUExampleScenario.node[10].veinsmobility 	totalDistance 	3409.6863937129
scalar RSUExampleScenario.node[10].veinsmobility 	totalCO2Emission 	690.87016629484
scalar RSUExampleScenario.node[11].veinsmobility 	startTime 	33.1
scalar RSUExampleScenario.node[11].veinsmobility 	totalTime 	267.1
scalar RSUExampleScenario.node[11].veinsmobility 	stopTime 	300.3
scalar RSUExampleScenario.node[11].veinsmobility 	minSpeed 	0.25860752219195
scalar RSUExampleScenario.node[11].veinsmobility 	maxSpeed 	13.999957416973
scalar RSUExampleScenario.node[11].veinsmobility 	totalDistance 	3413.5278511212
scalar RSUExampleScenario.node[11].veinsmobility 	totalCO2Emission 	690.54864906998
scalar RSUExampleScenario.node[12].veinsmobility 	startTime 	36.1
scalar RSUExampleScenario.node[12].veinsmobility 	totalTime 	267.1
scalar RSUExampleScenario.node[12].veinsmobility 	stopTime 	303.3
scalar RSUExampleScenario.node[12].veinsmobility 	minSpeed 	0.24832733271993
scalar RSUExampleScenario.node[12].veinsmobility 	maxSpeed 	13.999966527454
scalar RSUExampleScenario.node[12].veinsmobility 	totalDistance 	3409.2997216094
scalar RSUExampleScenario.node[12].veinsmobility 	totalCO2Emission 	688.52502509038
scalar RSUExampleScenario.node[13].veinsmobility 	startTime 	39.1
scalar RSUExampleScenario.node[13].veinsmobility 	totalTime 	267.2
scalar RSUExampleScenario.node[13].veinsmobility 	stopTime 	306.4
scalar RSUExampleScenario.node[13].veinsmobility 	minSpeed 	0.25607944562612
scalar RSUExampleScenario.node[13].veinsmobility 	maxSpeed 	13.999784512781
scalar RSUExampleScenario.node[13].veinsmobility 	totalDistance 	3414.2035135845
scalar RSUExampleScenario.node[13].veinsmobility 	totalCO2Emission 	692.88513828227
scalar RSUExampleScenario.node[14].veinsmobility 	startTime 	42.1
scalar RSUExampleScenario.node[14].veinsmobility 	totalTime 	267.3
scalar RSUExampleScenario.node[14].veinsmobility 	stopTime 	309.5
scalar RSUExampleScenario.node[14].veinsmobility 	minSpeed 	0.24902366959234
scalar RSUExampleScenario.node[14].veinsmobility 	maxSpeed 	13.999978509974
scalar RSUExampleScenario.node[14].veinsmobility 	totalDistance 	3409.7278911938
scalar RSUExampleScenario.node[14].veinsmobility 	totalCO2Emission 	691.13383631268
scalar RSUExampleScenario.node[15].veinsmobility 	startTime 	45.1
scalar RSUExampleScenario.node[15].veinsmobility 	totalTime 	267.3
scalar RSUExampleScenario.node[15].veinsmobility 	stopTime 	312.5
scalar RSUExampleScenario.node[15].veinsmobility 	minSpeed 	0.25120130739617
scalar RSUExampleScenario.node[15].veinsmobility 	maxSpeed 	13.999976438524
scalar RSUExampleScenario.node[15].veinsmobility 	totalDistance 	3413.473532218
scalar RSUExampleScenario.node[15].veinsmobility 	totalCO2Emission 	691.14249768195
scalar RSUExampleScenario.node[16].veinsmobility 	startTime 	48.1
scalar RSUExampleScenario.node[16].veinsmobility 	totalTime 	267.3
scalar RSUExampleScenario.node[16].veinsmobility 	stopTime 	315.5
scalar RSUExampleScenario.node[16].veinsmobility 	minSpeed 	0.24771011302131
scalar RSUExampleScenario.node[16].veinsmobility 	maxSpeed 	13.99992923633
scalar RSUExampleScenario.node[16].veinsmobility 	totalDistance 	3409.2909786612
scalar RSUExampleScenario.node[16].veinsmobility 	totalCO2Emission 	691.04799377054
scalar RSUExampleScenario.node[17].veinsmobility 	startTime 	51.1
scalar RSUExampleScenario.node[17].veinsmobility 	totalTime 	267.3
scalar RSUExampleScenario.node[17].veinsmobility 	stopTime 	318.5
scalar RSUExampleScenario.node[17].veinsmobility 	minSpeed 	0.24919565914036
scalar RSUExampleScenario.node[17].veinsmobility 	maxSpeed 	13.999940986966
scalar RSUExampleScenario.node[17].veinsmobility 	totalDistance 	3413.5108876506
scalar RSUExampleScenario.node[17].veinsmobility 	totalCO2Emission 	687.67729204689
scalar RSUExampleScenario.node[18].veinsmobility 	startTime 	54.1
scalar RSUExampleScenario.node[18].veinsmobility 	totalTime 	267.4
scalar RSUExampleScenario.node[18].veinsmobility 	stopTime 	321.6
scalar RSUExampleScenario.node[18].veinsmobility 	minSpeed 	0.25125227898941
scalar RSUExampleScenario.node[18].veinsmobility 	maxSpeed 	13.999951146839
scalar RSUExampleScenario.node[18].veinsmobility 	totalDistance 	3410.051757157
scalar RSUExampleScenario.node[18].veinsmobility 	totalCO2Emission 	693.56816089397
scalar RSUExampleScenario.node[19].veinsmobility 	startTime 	57.1
scalar RSUExampleScenario.node[19].veinsmobility 	totalTime 	267.5
scalar RSUExampleScenario.node[19].veinsmobility 	stopTime 	324.7
scalar RSUExampleScenario.node[19].veinsmobility 	minSpeed 	0.25434708085959
scalar RSUExampleScenario.node[19].veinsmobility 	maxSpeed 	13.999923374662
scalar RSUExampleScenario.node[19].veinsmobility 	totalDistance 	3413.7459379408
scalar RSUExampleScenario.node[19].veinsmobility 	totalCO2Emission 	692.92719273084
scalar RSUExampleScenario.node[20].veinsmobility 	startTime 	60.1
scalar RSUExampleScenario.node[20].veinsmobility 	totalTime 	267.6
scalar RSUExampleScenario.node[20].veinsmobility 	stopTime 	327.8
scalar RSUExampleScenario.node[20].veinsmobility 	minSpeed 	0.25486123902421
scalar RSUExampleScenario.node[20].veinsmobility 	maxSpeed 	13.999782567064
scalar RSUExampleScenario.node[20].veinsmobility 	totalDistance 	3409.8853515547
scalar RSUExampleScenario.node[20].veinsmobility 	totalCO2Emission 	692.70822307104
scalar RSUExampleScenario.node[21].veinsmobility 	startTime 	63.1
scalar RSUExampleScenario.node[21].veinsmobility 	totalTime 	267.8
scalar RSUExampleScenario.node[21].veinsmobility 	stopTime 	331
scalar RSUExampleScenario.node[21].veinsmobility 	minSpeed 	0.25306745180464
scalar RSUExampleScenario.node[21].veinsmobility 	maxSpeed 	13.999923827653
scalar RSUExampleScenario.node[21].veinsmobility 	totalDistance 	3414.2609668592
scalar RSUExampleScenario.node[21].veinsmobility 	totalCO2Emission 	690.20367681987
scalar RSUExampleScenario.node[22].veinsmobility 	startTime 	66.1
scalar RSUExampleScenario.node[22].veinsmobility 	totalTime 	267.9
scalar RSUExampleScenario.node[22].veinsmobility 	stopTime 	334.1
scalar RSUExampleScenario.node[22].veinsmobility 	minSpeed 	0.25325342443166
scalar RSUExampleScenario.node[22].veinsmobility 	maxSpeed 	13.999929159207
scalar RSUExampleScenario.node[22].veinsmobility 	totalDistance 	3409.3155885285
scalar RSUExampleScenario.node[22].veinsmobility 	totalCO2Emission 	692.58502111652
scalar RSUExampleScenario.node[23].veinsmobility 	startTime 	69.1
scalar RSUExampleScenario.node[23].veinsmobility 	totalTime 	268.1
scalar RSUExampleScenario.node[23].veinsmobility 	stopTime 	337.3
scalar RSUExampleScenario.node[23].veinsmobility 	minSpeed 	0.25176273280685
scalar RSUExampleScenario.node[23].veinsmobility 	maxSpeed 	13.999894130039
scalar RSUExampleScenario.node[23].veinsmobility 	totalDistance 	3413.7290788254
scalar RSUExampleScenario.node[23].veinsmobility 	totalCO2Emission 	694.98279595649
scalar RSUExampleScenario.node[24].veinsmobility 	startTime 	72.1
scalar RSUExampleScenario.node[24].veinsmobility 	totalTime 	268.3
scalar RSUExampleScenario.node[24].veinsmobility 	stopTime 	340.5
scalar RSUExampleScenario.node[24].veinsmobility 	minSpeed 	0.2483291572982
scalar RSUExampleScenario.node[24].veinsmobility 	maxSpeed 	13.999783283295
scalar RSUExampleScenario.node[24].veinsmobility 	totalDistance 	3409.4513332265
scalar RSUExampleScenario.node[24].veinsmobility 	totalCO2Emission 	691.79966068821
scalar RSUExampleScenario.node[25].veinsmobility 	startTime 	75.1
scalar RSUExampleScenario.node[25].veinsmobility 	totalTime 	268.6
scalar RSUExampleScenario.node[25].veinsmobility 	stopTime 	343.8
scalar RSUExampleScenario.node[25].veinsmobility 	minSpeed 	0.25069492765539
scalar RSUExampleScenario.node[25].veinsmobility 	maxSpeed 	13.999936267673
scalar RSUExampleScenario.node[25].veinsmobility 	totalDistance 	3413.6307253047
scalar RSUExampleScenario.node[25].veinsmobility 	totalCO2Emission 	690.87441234967
scalar RSUExampleScenario.node[26].veinsmobility 	startTime 	78.1
scalar RSUExampleScenario.node[26].veinsmobility 	totalTime 	268.9
scalar RSUExampleScenario.node[26].veinsmobility 	stopTime 	347.1
scalar RSUExampleScenario.node[26].veinsmobility 	minSpeed 	0.25436719882907
scalar RSUExampleScenario.node[26].veinsmobility 	maxSpeed 	13.999979831534
scalar RSUExampleScenario.node[26].veinsmobility 	totalDistance 	3409.4116725913
scalar RSUExampleScenario.node[26].veinsmobility 	totalCO2Emission 	688.44639795769
scalar RSUExampleScenario.node[27].veinsmobility 	startTime 	81.1
scalar RSUExampleScenario.node[27].veinsmobility 	totalTime 	269.2
scalar RSUExampleScenario.node[27].veinsmobility 	stopTime 	350.4
scalar RSUExampleScenario.node[27].veinsmobility 	minSpeed 	0.25672809192142
scalar RSUExampleScenario.node[27].veinsmobility 	maxSpeed 	13.999936959508
scalar RSUExampleScenario.node[27].veinsmobility 	totalDistance 	3409.3181055788
scalar RSUExampleScenario.node[27].veinsmobility 	totalCO2Emission 	689.47436283422
scalar RSUExampleScenario.node[28].veinsmobility 	startTime 	84.1
scalar RSUExampleScenario.node[28].veinsmobility 	totalTime 	269.6
scalar RSUExampleScenario.node[28].veinsmobility 	stopTime 	353.8
scalar RSUExampleScenario.node[28].veinsmobility 	minSpeed 	0.2559302699382
scalar RSUExampleScenario.node[28].veinsmobility 	maxSpeed 	13.999989904175
scalar RSUExampleScenario.node[28].veinsmobility 	totalDistance 	3413.5092592368
scalar RSUExampleScenario.node[28].veinsmobility 	totalCO2Emission 	691.27935204077
scalar RSUExampleScenario.node[29].veinsmobility 	startTime 	87.1
scalar RSUExampleScenario.node[29].veinsmobility 	totalTime 	270
scalar RSUExampleScenario.node[29].veinsmobility 	stopTime 	357.2
scalar RSUExampleScenario.node[29].veinsmobility 	minSpeed 	0.24804633843456
scalar RSUExampleScenario.node[29].veinsmobility 	maxSpeed 	13.99981810437
scalar RSUExampleScenario.node[29].veinsmobility 	totalDistance 	3409.6731932387
scalar RSUExampleScenario.node[29].veinsmobility 	totalCO2Emission 	695.44121026444
scalar RSUExampleScenario.node[30].veinsmobility 	startTime 	90.1
scalar RSUExampleScenario.node[30].veinsmobility 	totalTime 	270.5
scalar RSUExampleScenario.node[30].veinsmobility 	stopTime 	360.7
scalar RSUExampleScenario.node[30].veinsmobility 	minSpeed 	0.24721594463219
scalar RSUExampleScenario.node[30].veinsmobility 	maxSpeed 	13.999885130187
scalar RSUExampleScenario.node[30].veinsmobility 	totalDistance 	3413.9255181572
scalar RSUExampleScenario.node[30].veinsmobility 	totalCO2Emission 	691.81690244695
scalar RSUExampleScenario.node[31].veinsmobility 	startTime 	93.1
scalar RSUExampleScenario.node[31].veinsmobility 	totalTime 	271.1
scalar RSUExampleScenario.node[31].veinsmobility 	stopTime 	364.3
scalar RSUExampleScenario.node[31].veinsmobility 	minSpeed 	0.25847108430066
scalar RSUExampleScenario.node[31].veinsmobility 	maxSpeed 	13.999944434429
scalar RSUExampleScenario.node[31].veinsmobility 	totalDistance 	3409.6217308745
scalar RSUExampleScenario.node[31].veinsmobility 	totalCO2Emission 	691.05037675191
scalar RSUExampleScenario.node[32].veinsmobility 	startTime 	96.1
scalar RSUExampleScenario.node[32].veinsmobility 	totalTime 	271.7
scalar RSUExampleScenario.node[32].veinsmobility 	stopTime 	367.9
scalar RSUExampleScenario.node[32].veinsmobility 	minSpeed 	0.25276440024073
scalar RSUExampleScenario.node[32].veinsmobility 	maxSpeed 	13.99994985034
scalar RSUExampleScenario.node[32].veinsmobility 	totalDistance 	3413.5417269276
scalar RSUExampleScenario.node[32].veinsmobility 	totalCO2Emission 	690.93121350145
scalar RSUExampleScenario.node[33].veinsmobility 	startTime 	99.1
scalar RSUExampleScenario.node[33].veinsmobility 	totalTime 	272.3
scalar RSUExampleScenario.node[33].veinsmobility 	stopTime 	371.5
scalar RSUExampleScenario.node[33].veinsmobility 	minSpeed 	0.25539297450008
scalar RSUExampleScenario.node[33].veinsmobility 	maxSpeed 	13.999983291528
scalar RSUExampleScenario.node[33].veinsmobility 	totalDistance 	3409.6470193893
scalar RSUExampleScenario.node[33].veinsmobility 	totalCO2Emission 	693.45013624466
scalar RSUExampleScenario.node[34].veinsmobility 	startTime 	102.1
scalar RSUExampleScenario.node[34].veinsmobility 	totalTime 	273
scalar RSUExampleScenario.node[34].veinsmobility 	stopTime 	375.2
scalar RSUExampleScenario.node[34].veinsmobility 	minSpeed 	0.25496276311111
scalar RSUExampleScenario.node[34].veinsmobility 	maxSpeed 	13.99962060608
scalar RSUExampleScenario.node[34].veinsmobility 	totalDistance 	3414.2118139096
scalar RSUExampleScenario.node[34].veinsmobility 	totalCO2Emission 	698.31403129581
scalar RSUExampleScenario.node[35].veinsmobility 	startTime 	105.1
scalar RSUExampleScenario.node[35].veinsmobility 	totalTime 	273.7
scalar RSUExampleScenario.node[35].veinsmobility 	stopTime 	378.9
scalar RSUExampleScenario.node[35].veinsmobility 	minSpeed 	0.25484168815869
scalar RSUExampleScenario.node[35].veinsmobility 	maxSpeed 	13.999968204058
scalar RSUExampleScenario.node[35].veinsmobility 	totalDistance 	3409.8237981366
scalar RSUExampleScenario.node[35].veinsmobility 	totalCO2Emission 	695.64202270437
scalar RSUExampleScenario.node[36].veinsmobility 	startTime 	108.1
scalar RSUExampleScenario.node[36].veinsmobility 	totalTime 	274.3
scalar RSUExampleScenario.node[36].veinsmobility 	stopTime 	382.5
scalar RSUExampleScenario.node[36].veinsmobility 	minSpeed 	0.2482587085329
scalar RSUExampleScenario.node[36].veinsmobility 	maxSpeed 	13.999965699776
scalar RSUExampleScenario.node[36].veinsmobility 	totalDistance 	3413.565063595
scalar RSUExampleScenario.node[36].veinsmobility 	totalCO2Emission 	694.63257089782
scalar RSUExampleScenario.node[37].veinsmobility 	startTime 	111.1
scalar RSUExampleScenario.node[37].veinsmobility 	totalTime 	275
scalar RSUExampleScenario.node[37].veinsmobility 	stopTime 	386.2
scalar RSUExampleScenario.node[37].veinsmobility 	minSpeed 	0.25886742520449
scalar RSUExampleScenario.node[37].veinsmobility 	maxSpeed 	13.999995938309
scalar RSUExampleScenario.node[37].veinsmobility 	totalDistance 	3409.5609757462
scalar RSUExampleScenario.node[37].veinsmobility 	totalCO2Emission 	694.933020913
scalar RSUExampleScenario.node[38].veinsmobility 	startTime 	114.1
scalar RSUExampleScenario.node[38].veinsmobility 	totalTime 	275.8
scalar RSUExampleScenario.node[38].veinsmobility 	stopTime 	390
scalar RSUExampleScenario.node[38].veinsmobility 	minSpeed 	0.25107409657259
scalar RSUExampleScenario.node[38].veinsmobility 	maxSpeed 	13.999550419771
scalar RSUExampleScenario.node[38].veinsmobility 	totalDistance 	3414.1125010511
scalar RSUExampleScenario.node[38].veinsmobility 	totalCO2Emission 	701.03217549467
scalar RSUExampleScenario.node[39].veinsmobility 	startTime 	117.1
scalar RSUExampleScenario.node[39].veinsmobility 	totalTime 	276.4
scalar RSUExampleScenario.node[39].veinsmobility 	stopTime 	393.6
scalar RSUExampleScenario.node[39].veinsmobility 	minSpeed 	0.25807682775916
scalar RSUExampleScenario.node[39].veinsmobility 	maxSpeed 	13.999933126068
scalar RSUExampleScenario.node[39].veinsmobility 	totalDistance 	3409.6530284921
scalar RSUExampleScenario.node[39].veinsmobility 	totalCO2Emission 	698.99138949619
scalar RSUExampleScenario.node[40].veinsmobility 	startTime 	120.1
scalar RSUExampleScenario.node[40].veinsmobility 	totalTime 	277.1
scalar RSUExampleScenario.node[40].veinsmobility 	stopTime 	397.3
scalar RSUExampleScenario.node[40].veinsmobility 	minSpeed 	0.25113342320081
scalar RSUExampleScenario.node[40].veinsmobility 	maxSpeed 	13.999969006705
scalar RSUExampleScenario.node[40].veinsmobility 	totalDistance 	3413.8143040428
scalar RSUExampleScenario.node[40].veinsmobility 	totalCO2Emission 	698.20820880899
scalar RSUExampleScenario.node[41].veinsmobility 	startTime 	123.1
scalar RSUExampleScenario.node[41].veinsmobility 	totalTime 	277.8
scalar RSUExampleScenario.node[41].veinsmobility 	stopTime 	401
scalar RSUExampleScenario.node[41].veinsmobility 	minSpeed 	0.25441347294021
scalar RSUExampleScenario.node[41].veinsmobility 	maxSpeed 	13.999870678708
scalar RSUExampleScenario.node[41].veinsmobility 	totalDistance 	3409.9526894115
scalar RSUExampleScenario.node[41].veinsmobility 	totalCO2Emission 	699.71513977786
scalar RSUExampleScenario.node[42].veinsmobility 	startTime 	126.1
scalar RSUExampleScenario.node[42].veinsmobility 	totalTime 	278.4
scalar RSUExampleScenario.node[42].veinsmobility 	stopTime 	404.6
scalar RSUExampleScenario.node[42].veinsmobility 	minSpeed 	0.25653447613819
scalar RSUExampleScenario.node[42].veinsmobility 	maxSpeed 	13.999976770775
scalar RSUExampleScenario.node[42].veinsmobility 	totalDistance 	3413.4826545744
scalar RSUExampleScenario.node[42].veinsmobility 	totalCO2Emission 	698.93830697835
scalar RSUExampleScenario.node[43].veinsmobility 	startTime 	129.1
scalar RSUExampleScenario.node[43].veinsmobility 	totalTime 	279
scalar RSUExampleScenario.node[43].veinsmobility 	stopTime 	408.2
scalar RSUExampleScenario.node[43].veinsmobility 	minSpeed 	0.25791311275447
scalar RSUExampleScenario.node[43].veinsmobility 	maxSpeed 	13.999968598601
scalar RSUExampleScenario.node[43].veinsmobility 	totalDistance 	3409.4032508366
scalar RSUExampleScenario.node[43].veinsmobility 	totalCO2Emission 	702.7201272908
scalar RSUExampleScenario.node[44].veinsmobility 	startTime 	132.1
scalar RSUExampleScenario.node[44].veinsmobility 	totalTime 	279.7
scalar RSUExampleScenario.node[44].veinsmobility 	stopTime 	411.9
scalar RSUExampleScenario.node[44].veinsmobility 	minSpeed 	0.24750436572731
scalar RSUExampleScenario.node[44].veinsmobility 	maxSpeed 	13.99989220215
scalar RSUExampleScenario.node[44].veinsmobility 	totalDistance 	3414.0369216605
scalar RSUExampleScenario.node[44].veinsmobility 	totalCO2Emission 	702.83329488305
scalar RSUExampleScenario.node[45].veinsmobility 	startTime 	135.1
scalar RSUExampleScenario.node[45].veinsmobility 	totalTime 	280.4
scalar RSUExampleScenario.node[45].veinsmobility 	stopTime 	415.6
scalar RSUExampleScenario.node[45].veinsmobility 	minSpeed 	0.25194928922458
scalar RSUExampleScenario.node[45].veinsmobility 	maxSpeed 	13.99994080893
scalar RSUExampleScenario.node[45].veinsmobility 	totalDistance 	3410.1323709799
scalar RSUExampleScenario.node[45].veinsmobility 	totalCO2Emission 	696.0485861359
scalar RSUExampleScenario.node[46].veinsmobility 	startTime 	138.1
scalar RSUExampleScenario.node[46].veinsmobility 	totalTime 	281
scalar RSUExampleScenario.node[46].veinsmobility 	stopTime 	419.2
scalar RSUExampleScenario.node[46].veinsmobility 	minSpeed 	0.25794871210144
scalar RSUExampleScenario.node[46].veinsmobility 	maxSpeed 	13.999901302462
scalar RSUExampleScenario.node[46].veinsmobility 	totalDistance 	3413.8462474742
scalar RSUExampleScenario.node[46].veinsmobility 	totalCO2Emission 	702.55248309465
scalar RSUExampleScenario.node[47].veinsmobility 	startTime 	141.1
scalar RSUExampleScenario.node[47].veinsmobility 	totalTime 	281.7
scalar RSUExampleScenario.node[47].veinsmobility 	stopTime 	422.9
scalar RSUExampleScenario.node[47].veinsmobility 	minSpeed 	0.25438611663063
scalar RSUExampleScenario.node[47].veinsmobility 	maxSpeed 	13.999781439612
scalar RSUExampleScenario.node[47].veinsmobility 	totalDistance 	3410.1916010586
scalar RSUExampleScenario.node[47].veinsmobility 	totalCO2Emission 	708.42868766185
scalar RSUExampleScenario.node[48].veinsmobility 	startTime 	144.1
scalar RSUExampleScenario.node[48].veinsmobility 	totalTime 	282.4
scalar RSUExampleScenario.node[48].veinsmobility 	stopTime 	426.6
scalar RSUExampleScenario.node[48].veinsmobility 	minSpeed 	0.25095303633949
scalar RSUExampleScenario.node[48].veinsmobility 	maxSpeed 	13.99998965852
scalar RSUExampleScenario.node[48].veinsmobility 	totalDistance 	3413.6268819843
scalar RSUExampleScenario.node[48].veinsmobility 	totalCO2Emission 	704.30967926232
scalar RSUExampleScenario.node[49].veinsmobility 	startTime 	147.1
scalar RSUExampleScenario.node[49].veinsmobility 	totalTime 	283.1
scalar RSUExampleScenario.node[49].veinsmobility 	stopTime 	430.3
scalar RSUExampleScenario.node[49].veinsmobility 	minSpeed 	0.25205309668276
scalar RSUExampleScenario.node[49].veinsmobility 	maxSpeed 	13.999966709849
scalar RSUExampleScenario.node[49].veinsmobility 	totalDistance 	3410.1577475366
scalar RSUExampleScenario.node[49].veinsmobility 	totalCO2Emission 	707.4333324332
scalar RSUExampleScenario.node[50].veinsmobility 	startTime 	150.1
scalar RSUExampleScenario.node[50].veinsmobility 	totalTime 	283.8
scalar RSUExampleScenario.node[50].veinsmobility 	stopTime 	434
scalar RSUExampleScenario.node[50].veinsmobility 	minSpeed 	0.25906382592674
scalar RSUExampleScenario.node[50].veinsmobility 	maxSpeed 	13.999888536667
scalar RSUExampleScenario.node[50].veinsmobility 	totalDistance 	3414.1798850239
scalar RSUExampleScenario.node[50].veinsmobility 	totalCO2Emission 	705.56652475831
scalar RSUExampleScenario.node[51].veinsmobility 	startTime 	153.1
scalar RSUExampleScenario.node[51].veinsmobility 	totalTime 	284.5
scalar RSUExampleScenario.node[51].veinsmobility 	stopTime 	437.7
scalar RSUExampleScenario.node[51].veinsmobility 	minSpeed 	0.25919559265999
scalar RSUExampleScenario.node[51].veinsmobility 	maxSpeed 	13.999837715754
scalar RSUExampleScenario.node[51].veinsmobility 	totalDistance 	3409.5250126221
scalar RSUExampleScenario.node[51].veinsmobility 	totalCO2Emission 	706.41743849958
scalar RSUExampleScenario.node[52].veinsmobility 	startTime 	156.1
scalar RSUExampleScenario.node[52].veinsmobility 	totalTime 	285.1
scalar RSUExampleScenario.node[52].veinsmobility 	stopTime 	441.3
scalar RSUExampleScenario.node[52].veinsmobility 	minSpeed 	0.24734676754312
scalar RSUExampleScenario.node[52].veinsmobility 	maxSpeed 	13.999993470772
scalar RSUExampleScenario.node[52].veinsmobility 	totalDistance 	3413.6150716424
scalar RSUExampleScenario.node[52].veinsmobility 	totalCO2Emission 	707.50324637992
scalar RSUExampleScenario.node[53].veinsmobility 	startTime 	159.1
scalar RSUExampleScenario.node[53].veinsmobility 	totalTime 	285.7
scalar RSUExampleScenario.node[53].veinsmobility 	stopTime 	444.9
scalar RSUExampleScenario.node[53].veinsmobility 	minSpeed 	0.25683992703911
scalar RSUExampleScenario.node[53].veinsmobility 	maxSpeed 	13.999766029939
scalar RSUExampleScenario.node[53].veinsmobility 	totalDistance 	3409.4785531307
scalar RSUExampleScenario.node[53].veinsmobility 	totalCO2Emission 	707.83219412895
scalar RSUExampleScenario.node[54].veinsmobility 	startTime 	162.1
scalar RSUExampleScenario.node[54].veinsmobility 	totalTime 	286.3
scalar RSUExampleScenario.node[54].veinsmobility 	stopTime 	448.5
scalar RSUExampleScenario.node[54].veinsmobility 	minSpeed 	0.25620482037263
scalar RSUExampleScenario.node[54].veinsmobility 	maxSpeed 	13.999864578045
scalar RSUExampleScenario.node[54].veinsmobility 	totalDistance 	3413.7161806415
scalar RSUExampleScenario.node[54].veinsmobility 	totalCO2Emission 	705.6025366445
scalar RSUExampleScenario.node[55].veinsmobility 	startTime 	165.1
scalar RSUExampleScenario.node[55].veinsmobility 	totalTime 	286.9
scalar RSUExampleScenario.node[55].veinsmobility 	stopTime 	452.1
scalar RSUExampleScenario.node[55].veinsmobility 	minSpeed 	0.25487805340369
scalar RSUExampleScenario.node[55].veinsmobility 	maxSpeed 	13.999986649004
scalar RSUExampleScenario.node[55].veinsmobility 	totalDistance 	3409.6133378229
scalar RSUExampleScenario.node[55].veinsmobility 	totalCO2Emission 	706.12367179689
scalar RSUExampleScenario.node[56].veinsmobility 	startTime 	168.1
scalar RSUExampleScenario.node[56].veinsmobility 	totalTime 	287.6
scalar RSUExampleScenario.node[56].veinsmobility 	stopTime 	455.8
scalar RSUExampleScenario.node[56].veinsmobility 	minSpeed 	0.24770604977151
scalar RSUExampleScenario.node[56].veinsmobility 	maxSpeed 	13.999992017818
scalar RSUExampleScenario.node[56].veinsmobility 	totalDistance 	3414.2927185253
scalar RSUExampleScenario.node[56].veinsmobility 	totalCO2Emission 	712.08614905434
scalar RSUExampleScenario.node[57].veinsmobility 	startTime 	171.1
scalar RSUExampleScenario.node[57].veinsmobility 	totalTime 	288.4
scalar RSUExampleScenario.node[57].veinsmobility 	stopTime 	459.6
scalar RSUExampleScenario.node[57].veinsmobility 	minSpeed 	0.25827658699569
scalar RSUExampleScenario.node[57].veinsmobility 	maxSpeed 	13.999911525685
scalar RSUExampleScenario.node[57].veinsmobility 	totalDistance 	3410.0097405747
scalar RSUExampleScenario.node[57].veinsmobility 	totalCO2Emission 	706.47085507077
scalar RSUExampleScenario.node[58].veinsmobility 	startTime 	174.1
scalar RSUExampleScenario.node[58].veinsmobility 	totalTime 	289.1
scalar RSUExampleScenario.node[58].veinsmobility 	stopTime 	463.3
scalar RSUExampleScenario.node[58].veinsmobility 	minSpeed 	0.25617978732451
scalar RSUExampleScenario.node[58].veinsmobility 	maxSpeed 	13.999999682247
scalar RSUExampleScenario.node[58].veinsmobility 	totalDistance 	3413.8923882224
scalar RSUExampleScenario.node[58].veinsmobility 	totalCO2Emission 	711.5480909061
scalar RSUExampleScenario.node[59].veinsmobility 	startTime 	177.1
scalar RSUExampleScenario.node[59].veinsmobility 	totalTime 	289.7
scalar RSUExampleScenario.node[59].veinsmobility 	stopTime 	466.9
scalar RSUExampleScenario.node[59].veinsmobility 	minSpeed 	0.24917801493988
scalar RSUExampleScenario.node[59].veinsmobility 	maxSpeed 	13.999899381958
scalar RSUExampleScenario.node[59].veinsmobility 	totalDistance 	3409.4665051657
scalar RSUExampleScenario.node[59].veinsmobility 	totalCO2Emission 	712.21509452785
scalar RSUExampleScenario.node[60].veinsmobility 	startTime 	180.1
scalar RSUExampleScenario.node[60].veinsmobility 	totalTime 	290.4
scalar RSUExampleScenario.node[60].veinsmobility 	stopTime 	470.6
scalar RSUExampleScenario.node[60].veinsmobility 	minSpeed 	0.25463182891067
scalar RSUExampleScenario.node[60].veinsmobility 	maxSpeed 	13.999874787072
scalar RSUExampleScenario.node[60].veinsmobility 	totalDistance 	3413.752848315
scalar RSUExampleScenario.node[60].veinsmobility 	totalCO2Emission 	712.58257406372
scalar RSUExampleScenario.node[61].veinsmobility 	startTime 	183.1
scalar RSUExampleScenario.node[61].veinsmobility 	totalTime 	291.1
scalar RSUExampleScenario.node[61].veinsmobility 	stopTime 	474.3
scalar RSUExampleScenario.node[61].veinsmobility 	minSpeed 	0.25668276706873
scalar RSUExampleScenario.node[61].veinsmobility 	maxSpeed 	13.999809917335
scalar RSUExampleScenario.node[61].veinsmobility 	totalDistance 	3409.7947194278
scalar RSUExampleScenario.node[61].veinsmobility 	totalCO2Emission 	713.70039628591
scalar RSUExampleScenario.node[62].veinsmobility 	startTime 	186.1
scalar RSUExampleScenario.node[62].veinsmobility 	totalTime 	291.8
scalar RSUExampleScenario.node[62].veinsmobility 	stopTime 	478
scalar RSUExampleScenario.node[62].veinsmobility 	minSpeed 	0.25459181862557
scalar RSUExampleScenario.node[62].veinsmobility 	maxSpeed 	13.999973901431
scalar RSUExampleScenario.node[62].veinsmobility 	totalDistance 	3414.2012088585
scalar RSUExampleScenario.node[62].veinsmobility 	totalCO2Emission 	712.0690987873
scalar RSUExampleScenario.node[63].veinsmobility 	startTime 	189.1
scalar RSUExampleScenario.node[63].veinsmobility 	totalTime 	292.5
scalar RSUExampleScenario.node[63].veinsmobility 	stopTime 	481.7
scalar RSUExampleScenario.node[63].veinsmobility 	minSpeed 	0.25533525613393
scalar RSUExampleScenario.node[63].veinsmobility 	maxSpeed 	13.999857608811
scalar RSUExampleScenario.node[63].veinsmobility 	totalDistance 	3409.4856099098
scalar RSUExampleScenario.node[63].veinsmobility 	totalCO2Emission 	713.54949735769
scalar RSUExampleScenario.node[64].veinsmobility 	startTime 	192.1
scalar RSUExampleScenario.node[64].veinsmobility 	totalTime 	293.2
scalar RSUExampleScenario.node[64].veinsmobility 	stopTime 	485.4
scalar RSUExampleScenario.node[64].veinsmobility 	minSpeed 	0.25924201515992
scalar RSUExampleScenario.node[64].veinsmobility 	maxSpeed 	13.999874718848
scalar RSUExampleScenario.node[64].veinsmobility 	totalDistance 	3409.7453587302
scalar RSUExampleScenario.node[64].veinsmobility 	totalCO2Emission 	716.94646822534
scalar RSUExampleScenario.node[65].veinsmobility 	startTime 	195.1
scalar RSUExampleScenario.node[65].veinsmobility 	totalTime 	293.9
scalar RSUExampleScenario.node[65].veinsmobility 	stopTime 	489.1
scalar RSUExampleScenario.node[65].veinsmobility 	minSpeed 	0.24899344105087
scalar RSUExampleScenario.node[65].veinsmobility 	maxSpeed 	13.999976998027
scalar RSUExampleScenario.node[65].veinsmobility 	totalDistance 	3414.0857603993
scalar RSUExampleScenario.node[65].veinsmobility 	totalCO2Emission 	714.61860721911
scalar RSUExampleScenario.node[66].veinsmobility 	startTime 	198.1
scalar RSUExampleScenario.node[66].veinsmobility 	totalTime 	294.7
scalar RSUExampleScenario.node[66].veinsmobility 	stopTime 	492.9
scalar RSUExampleScenario.node[66].veinsmobility 	minSpeed 	0.25661275596637
scalar RSUExampleScenario.node[66].veinsmobility 	maxSpeed 	13.999841825601
scalar RSUExampleScenario.node[66].veinsmobility 	totalDistance 	3410.0388340225
scalar RSUExampleScenario.node[66].veinsmobility 	totalCO2Emission 	714.94379852433
scalar RSUExampleScenario.node[67].veinsmobility 	startTime 	201.1
scalar RSUExampleScenario.node[67].veinsmobility 	totalTime 	295.4
scalar RSUExampleScenario.node[67].veinsmobility 	stopTime 	496.6
scalar RSUExampleScenario.node[67].veinsmobility 	minSpeed 	0.25160140879126
scalar RSUExampleScenario.node[67].veinsmobility 	maxSpeed 	13.99990041906
scalar RSUExampleScenario.node[67].veinsmobility 	totalDistance 	3413.7978991691
scalar RSUExampleScenario.node[67].veinsmobility 	totalCO2Emission 	712.22186816702
scalar RSUExampleScenario.node[68].veinsmobility 	startTime 	204.1
scalar RSUExampleScenario.node[68].veinsmobility 	totalTime 	296.1
scalar RSUExampleScenario.node[68].veinsmobility 	stopTime 	500.3
scalar RSUExampleScenario.node[68].veinsmobility 	minSpeed 	0.2488963496678
scalar RSUExampleScenario.node[68].veinsmobility 	maxSpeed 	13.999805148644
scalar RSUExampleScenario.node[68].veinsmobility 	totalDistance 	3410.0376491325
scalar RSUExampleScenario.node[68].veinsmobility 	totalCO2Emission 	714.03305198199
scalar RSUExampleScenario.node[69].veinsmobility 	startTime 	207.1
scalar RSUExampleScenario.node[69].veinsmobility 	totalTime 	296.8
scalar RSUExampleScenario.node[69].veinsmobility 	stopTime 	504
scalar RSUExampleScenario.node[69].veinsmobility 	minSpeed 	0.2569955630952
scalar RSUExampleScenario.node[69].veinsmobility 	maxSpeed 	13.999927921519
scalar RSUExampleScenario.node[69].veinsmobility 	totalDistance 	3413.692044795
scalar RSUExampleScenario.node[69].veinsmobility 	totalCO2Emission 	715.83236121656
scalar RSUExampleScenario.node[70].veinsmobility 	startTime 	210.1
scalar RSUExampleScenario.node[70].veinsmobility 	totalTime 	297.5
scalar RSUExampleScenario.node[70].veinsmobility 	stopTime 	507.7
scalar RSUExampleScenario.node[70].veinsmobility 	minSpeed 	0.24855039494112
scalar RSUExampleScenario.node[70].veinsmobility 	maxSpeed 	13.999959391626
scalar RSUExampleScenario.node[70].veinsmobility 	totalDistance 	3409.8939699306
scalar RSUExampleScenario.node[70].veinsmobility 	totalCO2Emission 	719.9913756058
scalar RSUExampleScenario.node[71].veinsmobility 	startTime 	213.1
scalar RSUExampleScenario.node[71].veinsmobility 	totalTime 	298.2
scalar RSUExampleScenario.node[71].veinsmobility 	stopTime 	511.4
scalar RSUExampleScenario.node[71].veinsmobility 	minSpeed 	0.25961518042255
scalar RSUExampleScenario.node[71].veinsmobility 	maxSpeed 	13.999788892195
scalar RSUExampleScenario.node[71].veinsmobility 	totalDistance 	3414.2036304423
scalar RSUExampleScenario.node[71].veinsmobility 	totalCO2Emission 	717.31984734191
scalar RSUExampleScenario.node[72].veinsmobility 	startTime 	216.1
scalar RSUExampleScenario.node[72].veinsmobility 	totalTime 	298.9
scalar RSUExampleScenario.node[72].veinsmobility 	stopTime 	515.1
scalar RSUExampleScenario.node[72].veinsmobility 	minSpeed 	0.24843055169587
scalar RSUExampleScenario.node[72].veinsmobility 	maxSpeed 	13.99981584653
scalar RSUExampleScenario.node[72].veinsmobility 	totalDistance 	3409.6979828481
scalar RSUExampleScenario.node[72].veinsmobility 	totalCO2Emission 	719.81129412795
scalar RSUExampleScenario.node[73].veinsmobility 	startTime 	219.1
scalar RSUExampleScenario.node[73].veinsmobility 	totalTime 	299.6
scalar RSUExampleScenario.node[73].veinsmobility 	stopTime 	518.8
scalar RSUExampleScenario.node[73].veinsmobility 	minSpeed 	0.25612917445228
scalar RSUExampleScenario.node[73].veinsmobility 	maxSpeed 	13.999956488623
scalar RSUExampleScenario.node[73].veinsmobility 	totalDistance 	3413.607205419
scalar RSUExampleScenario.node[73].veinsmobility 	totalCO2Emission 	722.95268330514
scalar RSUExampleScenario.node[74].veinsmobility 	startTime 	222.1
scalar RSUExampleScenario.node[74].veinsmobility 	totalTime 	300.3
scalar RSUExampleScenario.node[74].veinsmobility 	stopTime 	522.5
scalar RSUExampleScenario.node[74].veinsmobility 	minSpeed 	0.25259810770233
scalar RSUExampleScenario.node[74].veinsmobility 	maxSpeed 	13.999943229007
scalar RSUExampleScenario.node[74].veinsmobility 	totalDistance 	3409.7593514535
scalar RSUExampleScenario.node[74].veinsmobility 	totalCO2Emission 	721.90924561311
scalar RSUExampleScenario.node[75].veinsmobility 	startTime 	225.1
scalar RSUExampleScenario.node[75].veinsmobility 	totalTime 	300.9
scalar RSUExampleScenario.node[75].veinsmobility 	stopTime 	526.1
scalar RSUExampleScenario.node[75].veinsmobility 	minSpeed 	0.24878600082011
scalar RSUExampleScenario.node[75].veinsmobility 	maxSpeed 	13.999976741658
scalar RSUExampleScenario.node[75].veinsmobility 	totalDistance 	3413.9619522715
scalar RSUExampleScenario.node[75].veinsmobility 	totalCO2Emission 	722.86469007597
scalar RSUExampleScenario.node[76].veinsmobility 	startTime 	228.1
scalar RSUExampleScenario.node[76].veinsmobility 	totalTime 	301.6
scalar RSUExampleScenario.node[76].veinsmobility 	stopTime 	529.8
scalar RSUExampleScenario.node[76].veinsmobility 	minSpeed 	0.25254956177319
scalar RSUExampleScenario.node[76].veinsmobility 	maxSpeed 	13.999985150194
scalar RSUExampleScenario.node[76].veinsmobility 	totalDistance 	3409.847545429
scalar RSUExampleScenario.node[76].veinsmobility 	totalCO2Emission 	718.94263843548
scalar RSUExampleScenario.node[77].veinsmobility 	startTime 	231.1
scalar RSUExampleScenario.node[77].veinsmobility 	totalTime 	302.3
scalar RSUExampleScenario.node[77].veinsmobility 	stopTime 	533.5
scalar RSUExampleScenario.node[77].veinsmobility 	minSpeed 	0.25024625631049
scalar RSUExampleScenario.node[77].veinsmobility 	maxSpeed 	13.999850796305
scalar RSUExampleScenario.node[77].veinsmobility 	totalDistance 	3414.1716640477
scalar RSUExampleScenario.node[77].veinsmobility 	totalCO2Emission 	724.24870214745
scalar RSUExampleScenario.node[78].veinsmobility 	startTime 	234.1
scalar RSUExampleScenario.node[78].veinsmobility 	totalTime 	303
scalar RSUExampleScenario.node[78].veinsmobility 	stopTime 	537.2
scalar RSUExampleScenario.node[78].veinsmobility 	minSpeed 	0.25164537124871
scalar RSUExampleScenario.node[78].veinsmobility 	maxSpeed 	13.999939907186
scalar RSUExampleScenario.node[78].veinsmobility 	totalDistance 	3409.4610393136
scalar RSUExampleScenario.node[78].veinsmobility 	totalCO2Emission 	721.09726811611
scalar RSUExampleScenario.node[79].veinsmobility 	startTime 	237.1
scalar RSUExampleScenario.node[79].veinsmobility 	totalTime 	303.7
scalar RSUExampleScenario.node[79].veinsmobility 	stopTime 	540.9
scalar RSUExampleScenario.node[79].veinsmobility 	minSpeed 	0.24950932765659
scalar RSUExampleScenario.node[79].veinsmobility 	maxSpeed 	13.999988392622
scalar RSUExampleScenario.node[79].veinsmobility 	totalDistance 	3413.9022683336
scalar RSUExampleScenario.node[79].veinsmobility 	totalCO2Emission 	724.78313893798
scalar RSUExampleScenario.node[80].veinsmobility 	startTime 	240.1
scalar RSUExampleScenario.node[80].veinsmobility 	totalTime 	304.4
scalar RSUExampleScenario.node[80].veinsmobility 	stopTime 	544.6
scalar RSUExampleScenario.node[80].veinsmobility 	minSpeed 	0.25493998696795
scalar RSUExampleScenario.node[80].veinsmobility 	maxSpeed 	13.999962114443
scalar RSUExampleScenario.node[80].veinsmobility 	totalDistance 	3410.0436048799
scalar RSUExampleScenario.node[80].veinsmobility 	totalCO2Emission 	721.6059138045
scalar RSUExampleScenario.node[81].veinsmobility 	startTime 	243.1
scalar RSUExampleScenario.node[81].veinsmobility 	totalTime 	305.1
scalar RSUExampleScenario.node[81].veinsmobility 	stopTime 	548.3
scalar RSUExampleScenario.node[81].veinsmobility 	minSpeed 	0.25291560925008
scalar RSUExampleScenario.node[81].veinsmobility 	maxSpeed 	13.999984556034
scalar RSUExampleScenario.node[81].veinsmobility 	totalDistance 	3414.0141957835
scalar RSUExampleScenario.node[81].veinsmobility 	totalCO2Emission 	726.9002824461
scalar RSUExampleScenario.node[82].veinsmobility 	startTime 	246.1
scalar RSUExampleScenario.node[82].veinsmobility 	totalTime 	305.8
scalar RSUExampleScenario.node[82].veinsmobility 	stopTime 	552
scalar RSUExampleScenario.node[82].veinsmobility 	minSpeed 	0.25087793941377
scalar RSUExampleScenario.node[82].veinsmobility 	maxSpeed 	13.999989817971
scalar RSUExampleScenario.node[82].veinsmobility 	totalDistance 	3409.5647079587
scalar RSUExampleScenario.node[82].veinsmobility 	totalCO2Emission 	725.07738682134
scalar RSUExampleScenario.node[83].veinsmobility 	startTime 	249.1
scalar RSUExampleScenario.node[83].veinsmobility 	totalTime 	306.5
scalar RSUExampleScenario.node[83].veinsmobility 	stopTime 	555.7
scalar RSUExampleScenario.node[83].veinsmobility 	minSpeed 	0.2476762557209
scalar RSUExampleScenario.node[83].veinsmobility 	maxSpeed 	13.999996794257
scalar RSUExampleScenario.node[83].veinsmobility 	totalDistance 	3413.9050711653
scalar RSUExampleScenario.node[83].veinsmobility 	totalCO2Emission 	731.23913487144
scalar RSUExampleScenario.node[84].veinsmobility 	startTime 	252.1
scalar RSUExampleScenario.node[84].veinsmobility 	totalTime 	307.1
scalar RSUExampleScenario.node[84].veinsmobility 	stopTime 	559.3
scalar RSUExampleScenario.node[84].veinsmobility 	minSpeed 	0.25088217036636
scalar RSUExampleScenario.node[84].veinsmobility 	maxSpeed 	13.999886247136
scalar RSUExampleScenario.node[84].veinsmobility 	totalDistance 	3409.6547020089
scalar RSUExampleScenario.node[84].veinsmobility 	totalCO2Emission 	734.43627422261
scalar RSUExampleScenario.node[85].veinsmobility 	startTime 	255.1
scalar RSUExampleScenario.node[85].veinsmobility 	totalTime 	307.8
scalar RSUExampleScenario.node[85].veinsmobility 	stopTime 	563
scalar RSUExampleScenario.node[85].veinsmobility 	minSpeed 	0.25706732322089
scalar RSUExampleScenario.node[85].veinsmobility 	maxSpeed 	13.99998944734
scalar RSUExampleScenario.node[85].veinsmobility 	totalDistance 	3413.8447465542
scalar RSUExampleScenario.node[85].veinsmobility 	totalCO2Emission 	726.65998875087
scalar RSUExampleScenario.node[86].veinsmobility 	startTime 	258.1
scalar RSUExampleScenario.node[86].veinsmobility 	totalTime 	308.5
scalar RSUExampleScenario.node[86].veinsmobility 	stopTime 	566.7
scalar RSUExampleScenario.node[86].veinsmobility 	minSpeed 	0.25095251760073
scalar RSUExampleScenario.node[86].veinsmobility 	maxSpeed 	13.999984846213
scalar RSUExampleScenario.node[86].veinsmobility 	totalDistance 	3410.1704009557
scalar RSUExampleScenario.node[86].veinsmobility 	totalCO2Emission 	731.40418686869
scalar RSUExampleScenario.node[87].veinsmobility 	startTime 	261.1
scalar RSUExampleScenario.node[87].veinsmobility 	totalTime 	309.2
scalar RSUExampleScenario.node[87].veinsmobility 	stopTime 	570.4
scalar RSUExampleScenario.node[87].veinsmobility 	minSpeed 	0.25004522084864
scalar RSUExampleScenario.node[87].veinsmobility 	maxSpeed 	13.999896251946
scalar RSUExampleScenario.node[87].veinsmobility 	totalDistance 	3413.6736817041
scalar RSUExampleScenario.node[87].veinsmobility 	totalCO2Emission 	731.03855611577
scalar RSUExampleScenario.node[88].veinsmobility 	startTime 	264.1
scalar RSUExampleScenario.node[88].veinsmobility 	totalTime 	309.9
scalar RSUExampleScenario.node[88].veinsmobility 	stopTime 	574.1
scalar RSUExampleScenario.node[88].veinsmobility 	minSpeed 	0.2593584356592
scalar RSUExampleScenario.node[88].veinsmobility 	maxSpeed 	13.999973994808
scalar RSUExampleScenario.node[88].veinsmobility 	totalDistance 	3410.1645408142
scalar RSUExampleScenario.node[88].veinsmobility 	totalCO2Emission 	733.07890835174
scalar RSUExampleScenario.node[89].veinsmobility 	startTime 	267.1
scalar RSUExampleScenario.node[89].veinsmobility 	totalTime 	310.5
scalar RSUExampleScenario.node[89].veinsmobility 	stopTime 	577.7
scalar RSUExampleScenario.node[89].veinsmobility 	minSpeed 	0.2506210525725
scalar RSUExampleScenario.node[89].veinsmobility 	maxSpeed 	13.999881789873
scalar RSUExampleScenario.node[89].veinsmobility 	totalDistance 	3413.9479541777
scalar RSUExampleScenario.node[89].veinsmobility 	totalCO2Emission 	727.24711978989
scalar RSUExampleScenario.node[90].veinsmobility 	startTime 	270.1
scalar RSUExampleScenario.node[90].veinsmobility 	totalTime 	311.1
scalar RSUExampleScenario.node[90].veinsmobility 	stopTime 	581.3
scalar RSUExampleScenario.node[90].veinsmobility 	minSpeed 	0.25604867368354
scalar RSUExampleScenario.node[90].veinsmobility 	maxSpeed 	13.999917350304
scalar RSUExampleScenario.node[90].veinsmobility 	totalDistance 	3409.8289905742
scalar RSUExampleScenario.node[90].veinsmobility 	totalCO2Emission 	734.09498620749
scalar RSUExampleScenario.node[91].veinsmobility 	startTime 	273.1
scalar RSUExampleScenario.node[91].veinsmobility 	totalTime 	311.8
scalar RSUExampleScenario.node[91].veinsmobility 	stopTime 	585
scalar RSUExampleScenario.node[91].veinsmobility 	minSpeed 	0.25269972229353
scalar RSUExampleScenario.node[91].veinsmobility 	maxSpeed 	13.999983092546
scalar RSUExampleScenario.node[91].veinsmobility 	totalDistance 	3413.9930151063
scalar RSUExampleScenario.node[91].veinsmobility 	totalCO2Emission 	731.36415705107
scalar RSUExampleScenario.node[92].veinsmobility 	startTime 	276.1
scalar RSUExampleScenario.node[92].veinsmobility 	totalTime 	312.5
scalar RSUExampleScenario.node[92].veinsmobility 	stopTime 	588.7
scalar RSUExampleScenario.node[92].veinsmobility 	minSpeed 	0.25334027267504
scalar RSUExampleScenario.node[92].veinsmobility 	maxSpeed 	13.999841089454
scalar RSUExampleScenario.node[92].veinsmobility 	totalDistance 	3409.7324883506
scalar RSUExampleScenario.node[92].veinsmobility 	totalCO2Emission 	733.65927162026
scalar RSUExampleScenario.node[93].veinsmobility 	startTime 	279.1
scalar RSUExampleScenario.node[93].veinsmobility 	totalTime 	313.1
scalar RSUExampleScenario.node[93].veinsmobility 	stopTime 	592.3
scalar RSUExampleScenario.node[93].veinsmobility 	minSpeed 	0.25975856940472
scalar RSUExampleScenario.node[93].veinsmobility 	maxSpeed 	13.999947583238
scalar RSUExampleScenario.node[93].veinsmobility 	totalDistance 	3413.8615868989
scalar RSUExampleScenario.node[93].veinsmobility 	totalCO2Emission 	733.28094522069
scalar RSUExampleScenario.node[94].veinsmobility 	startTime 	282.1
scalar RSUExampleScenario.node[94].veinsmobility 	totalTime 	313.8
scalar RSUExampleScenario.node[94].veinsmobility 	stopTime 	596
scalar RSUExampleScenario.node[94].veinsmobility 	minSpeed 	0.24934638448549
scalar RSUExampleScenario.node[94].veinsmobility 	maxSpeed 	13.999927922427
scalar RSUExampleScenario.node[94].veinsmobility 	totalDistance 	3409.8715187986
scalar RSUExampleScenario.node[94].veinsmobility 	totalCO2Emission 	735.24687563312
scalar RSUExampleScenario.node[95].veinsmobility 	startTime 	285.1
scalar RSUExampleScenario.node[95].veinsmobility 	totalTime 	314.6
scalar RSUExampleScenario.node[95].veinsmobility 	stopTime 	599.8
scalar RSUExampleScenario.node[95].veinsmobility 	minSpeed 	0.24707111583231
scalar RSUExampleScenario.node[95].veinsmobility 	maxSpeed 	13.999907688219
scalar RSUExampleScenario.node[95].veinsmobility 	totalDistance 	3414.2635250224
scalar RSUExampleScenario.node[95].veinsmobility 	totalCO2Emission 	734.89422328944
scalar RSUExampleScenario.node[96].veinsmobility 	startTime 	288.1
scalar RSUExampleScenario.node[96].veinsmobility 	totalTime 	315.3
scalar RSUExampleScenario.node[96].veinsmobility 	stopTime 	603.5
scalar RSUExampleScenario.node[96].veinsmobility 	minSpeed 	0.25957611671416
scalar RSUExampleScenario.node[96].veinsmobility 	maxSpeed 	13.999964066425
scalar RSUExampleScenario.node[96].veinsmobility 	totalDistance 	3410.0996147727
scalar RSUExampleScenario.node[96].veinsmobility 	totalCO2Emission 	732.47946294707
scalar RSUExampleScenario.node[97].veinsmobility 	startTime 	291.1
scalar RSUExampleScenario.node[97].veinsmobility 	totalTime 	316.1
scalar RSUExampleScenario.node[97].veinsmobility 	stopTime 	607.3
scalar RSUExampleScenario.node[97].veinsmobility 	minSpeed 	0.25479606546299
scalar RSUExampleScenario.node[97].veinsmobility 	maxSpeed 	13.999967704848
scalar RSUExampleScenario.node[97].veinsmobility 	totalDistance 	3414.1529150562
scalar RSUExampleScenario.node[97].veinsmobility 	totalCO2Emission 	734.28311625093
scalar RSUExampleScenario.node[98].veinsmobility 	startTime 	294.1
scalar RSUExampleScenario.node[98].veinsmobility 	totalTime 	316.8
scalar RSUExampleScenario.node[98].veinsmobility 	stopTime 	611
scalar RSUExampleScenario.node[98].veinsmobility 	minSpeed 	0.25339696069481
scalar RSUExampleScenario.node[98].veinsmobility 	maxSpeed 	13.999981301015
scalar RSUExampleScenario.node[98].veinsmobility 	totalDistance 	3409.7805041774
scalar RSUExampleScenario.node[98].veinsmobility 	totalCO2Emission 	736.73621561509
scalar RSUExampleScenario.node[99].veinsmobility 	startTime 	297.1
scalar RSUExampleScenario.node[99].veinsmobility 	totalTime 	317.5
scalar RSUExampleScenario.node[99].veinsmobility 	stopTime 	614.7
scalar RSUExampleScenario.node[99].veinsmobility 	minSpeed 	0.2538909356927
scalar RSUExampleScenario.node[99].veinsmobility 	maxSpeed 	13.99991562509
scalar RSUExampleScenario.node[99].veinsmobility 	totalDistance 	3414.05701956
scalar RSUExampleScenario.node[99].veinsmobility 	totalCO2Emission 	738.75286795344
scalar RSUExampleScenario.node[100].veinsmobility 	startTime 	300.1
scalar RSUExampleScenario.node[100].veinsmobility 	totalTime 	318.2
scalar RSUExampleScenario.node[100].veinsmobility 	stopTime 	618.4
scalar RSUExampleScenario.node[100].veinsmobility 	minSpeed 	0.25642697555316
scalar RSUExampleScenario.node[100].veinsmobility 	maxSpeed 	13.999938352653
scalar RSUExampleScenario.node[100].veinsmobility 	totalDistance 	3409.8291982125
scalar RSUExampleScenario.node[100].veinsmobility 	totalCO2Emission 	740.66718135352
scalar RSUExampleScenario.node[101].veinsmobility 	startTime 	303.1
scalar RSUExampleScenario.node[101].veinsmobility 	totalTime 	318.8
scalar RSUExampleScenario.node[101].veinsmobility 	stopTime 	622
scalar RSUExampleScenario.node[101].veinsmobility 	minSpeed 	0.25920167482365
scalar RSUExampleScenario.node[101].veinsmobility 	maxSpeed 	13.999941354298
scalar RSUExampleScenario.node[101].veinsmobility 	totalDistance 	3413.8389417464
scalar RSUExampleScenario.node[101].veinsmobility 	totalCO2Emission 	739.4954774928
scalar RSUExampleScenario.node[102].veinsmobility 	startTime 	306.1
scalar RSUExampleScenario.node[102].veinsmobility 	totalTime 	319.5
scalar RSUExampleScenario.node[102].veinsmobility 	stopTime 	625.7
scalar RSUExampleScenario.node[102].veinsmobility 	minSpeed 	0.24739599458966
scalar RSUExampleScenario.node[102].veinsmobility 	maxSpeed 	13.999799380142
scalar RSUExampleScenario.node[102].veinsmobility 	totalDistance 	3410.1380465776
scalar RSUExampleScenario.node[102].veinsmobility 	totalCO2Emission 	740.48952699395
scalar RSUExampleScenario.node[103].veinsmobility 	startTime 	309.1
scalar RSUExampleScenario.node[103].veinsmobility 	totalTime 	320.2
scalar RSUExampleScenario.node[103].veinsmobility 	stopTime 	629.4
scalar RSUExampleScenario.node[103].veinsmobility 	minSpeed 	0.24893970245542
scalar RSUExampleScenario.node[103].veinsmobility 	maxSpeed 	13.999883592543
scalar RSUExampleScenario.node[103].veinsmobility 	totalDistance 	3413.7745450432
scalar RSUExampleScenario.node[103].veinsmobility 	totalCO2Emission 	742.86250760816
scalar RSUExampleScenario.node[104].veinsmobility 	startTime 	312.1
scalar RSUExampleScenario.node[104].veinsmobility 	totalTime 	320.8
scalar RSUExampleScenario.node[104].veinsmobility 	stopTime 	633
scalar RSUExampleScenario.node[104].veinsmobility 	minSpeed 	0.25375974893942
scalar RSUExampleScenario.node[104].veinsmobility 	maxSpeed 	13.999945719214
scalar RSUExampleScenario.node[104].veinsmobility 	totalDistance 	3409.65391629
scalar RSUExampleScenario.node[104].veinsmobility 	totalCO2Emission 	741.65974799582
scalar RSUExampleScenario.node[105].veinsmobility 	startTime 	315.1
scalar RSUExampleScenario.node[105].veinsmobility 	totalTime 	321.5
scalar RSUExampleScenario.node[105].veinsmobility 	stopTime 	636.7
scalar RSUExampleScenario.node[105].veinsmobility 	minSpeed 	0.25586910056183
scalar RSUExampleScenario.node[105].veinsmobility 	maxSpeed 	13.999821734955
scalar RSUExampleScenario.node[105].veinsmobility 	totalDistance 	3413.7396359835
scalar RSUExampleScenario.node[105].veinsmobility 	totalCO2Emission 	741.23812411199
scalar RSUExampleScenario.node[106].veinsmobility 	startTime 	318.1
scalar RSUExampleScenario.node[106].veinsmobility 	totalTime 	322.2
scalar RSUExampleScenario.node[106].veinsmobility 	stopTime 	640.4
scalar RSUExampleScenario.node[106].veinsmobility 	minSpeed 	0.25439688903326
scalar RSUExampleScenario.node[106].veinsmobility 	maxSpeed 	13.99994202083
scalar RSUExampleScenario.node[106].veinsmobility 	totalDistance 	3410.0198867896
scalar RSUExampleScenario.node[106].veinsmobility 	totalCO2Emission 	745.70419349143
scalar RSUExampleScenario.node[107].veinsmobility 	startTime 	321.1
scalar RSUExampleScenario.node[107].veinsmobility 	totalTime 	322.8
scalar RSUExampleScenario.node[107].veinsmobility 	stopTime 	644
scalar RSUExampleScenario.node[107].veinsmobility 	minSpeed 	0.2567449035102
scalar RSUExampleScenario.node[107].veinsmobility 	maxSpeed 	13.999923052611
scalar RSUExampleScenario.node[107].veinsmobility 	totalDistance 	3413.6847528834
scalar RSUExampleScenario.node[107].veinsmobility 	totalCO2Emission 	742.6026449424
scalar RSUExampleScenario.node[108].veinsmobility 	startTime 	324.1
scalar RSUExampleScenario.node[108].veinsmobility 	totalTime 	323.5
scalar RSUExampleScenario.node[108].veinsmobility 	stopTime 	647.7
scalar RSUExampleScenario.node[108].veinsmobility 	minSpeed 	0.25417136413627
scalar RSUExampleScenario.node[108].veinsmobility 	maxSpeed 	13.999989674108
scalar RSUExampleScenario.node[108].veinsmobility 	totalDistance 	3410.0528480818
scalar RSUExampleScenario.node[108].veinsmobility 	totalCO2Emission 	744.32992597175
scalar RSUExampleScenario.node[109].veinsmobility 	startTime 	327.1
scalar RSUExampleScenario.node[109].veinsmobility 	totalTime 	324.2
scalar RSUExampleScenario.node[109].veinsmobility 	stopTime 	651.4
scalar RSUExampleScenario.node[109].veinsmobility 	minSpeed 	0.25745955222216
scalar RSUExampleScenario.node[109].veinsmobility 	maxSpeed 	13.999969488692
scalar RSUExampleScenario.node[109].veinsmobility 	totalDistance 	3414.2172088785
scalar RSUExampleScenario.node[109].veinsmobility 	totalCO2Emission 	748.16233945007
scalar RSUExampleScenario.node[110].veinsmobility 	startTime 	330.1
scalar RSUExampleScenario.node[110].veinsmobility 	totalTime 	324.9
scalar RSUExampleScenario.node[110].veinsmobility 	stopTime 	655.1
scalar RSUExampleScenario.node[110].veinsmobility 	minSpeed 	0.25442685829615
scalar RSUExampleScenario.node[110].veinsmobility 	maxSpeed 	13.999895343967
scalar RSUExampleScenario.node[110].veinsmobility 	totalDistance 	3410.1013129491
scalar RSUExampleScenario.node[110].veinsmobility 	totalCO2Emission 	747.47517573367
scalar RSUExampleScenario.node[111].veinsmobility 	startTime 	333.1
scalar RSUExampleScenario.node[111].veinsmobility 	totalTime 	325.6
scalar RSUExampleScenario.node[111].veinsmobility 	stopTime 	658.8
scalar RSUExampleScenario.node[111].veinsmobility 	minSpeed 	0.2542060201664
scalar RSUExampleScenario.node[111].veinsmobility 	maxSpeed 	13.999972843474
scalar RSUExampleScenario.node[111].veinsmobility 	totalDistance 	3414.1811499259
scalar RSUExampleScenario.node[111].veinsmobility 	totalCO2Emission 	749.8743275435
scalar RSUExampleScenario.node[112].veinsmobility 	startTime 	336.1
scalar RSUExampleScenario.node[112].veinsmobility 	totalTime 	326.2
scalar RSUExampleScenario.node[112].veinsmobility 	stopTime 	662.4
scalar RSUExampleScenario.node[112].veinsmobility 	minSpeed 	0.25226654306217
scalar RSUExampleScenario.node[112].veinsmobility 	maxSpeed 	13.999973204208
scalar RSUExampleScenario.node[112].veinsmobility 	totalDistance 	3409.541918898
scalar RSUExampleScenario.node[112].veinsmobility 	totalCO2Emission 	747.51712288301
scalar RSUExampleScenario.node[113].veinsmobility 	startTime 	339.1
scalar RSUExampleScenario.node[113].veinsmobility 	totalTime 	326.9
scalar RSUExampleScenario.node[113].veinsmobility 	stopTime 	666.1
scalar RSUExampleScenario.node[113].veinsmobility 	minSpeed 	0.24767759917444
scalar RSUExampleScenario.node[113].veinsmobility 	maxSpeed 	13.999883480915
scalar RSUExampleScenario.node[113].veinsmobility 	totalDistance 	3414.2012926458
scalar RSUExampleScenario.node[113].veinsmobility 	totalCO2Emission 	754.51612605286
scalar RSUExampleScenario.node[114].veinsmobility 	startTime 	342.1
scalar RSUExampleScenario.node[114].veinsmobility 	totalTime 	327.6
scalar RSUExampleScenario.node[114].veinsmobility 	stopTime 	669.8
scalar RSUExampleScenario.node[114].veinsmobility 	minSpeed 	0.25246362394234
scalar RSUExampleScenario.node[114].veinsmobility 	maxSpeed 	13.999973612856
scalar RSUExampleScenario.node[114].veinsmobility 	totalDistance 	3409.8023052854
scalar RSUExampleScenario.node[114].veinsmobility 	totalCO2Emission 	749.43753417766
scalar RSUExampleScenario.node[115].veinsmobility 	startTime 	345.1
scalar RSUExampleScenario.node[115].veinsmobility 	totalTime 	328.4
scalar RSUExampleScenario.node[115].veinsmobility 	stopTime 	673.6
scalar RSUExampleScenario.node[115].veinsmobility 	minSpeed 	0.25292717859964
scalar RSUExampleScenario.node[115].veinsmobility 	maxSpeed 	13.999966932258
scalar RSUExampleScenario.node[115].veinsmobility 	totalDistance 	3413.8282655514
scalar RSUExampleScenario.node[115].veinsmobility 	totalCO2Emission 	749.70416081353
scalar RSUExampleScenario.node[116].veinsmobility 	startTime 	348.1
scalar RSUExampleScenario.node[116].veinsmobility 	totalTime 	329.1
scalar RSUExampleScenario.node[116].veinsmobility 	stopTime 	677.3
scalar RSUExampleScenario.node[116].veinsmobility 	minSpeed 	0.25248618453206
scalar RSUExampleScenario.node[116].veinsmobility 	maxSpeed 	13.999775822086
scalar RSUExampleScenario.node[116].veinsmobility 	totalDistance 	3409.647127
scalar RSUExampleScenario.node[116].veinsmobility 	totalCO2Emission 	747.94389228663
scalar RSUExampleScenario.node[117].veinsmobility 	startTime 	351.1
scalar RSUExampleScenario.node[117].veinsmobility 	totalTime 	329.7
scalar RSUExampleScenario.node[117].veinsmobility 	stopTime 	680.9
scalar RSUExampleScenario.node[117].veinsmobility 	minSpeed 	0.25227612303337
scalar RSUExampleScenario.node[117].veinsmobility 	maxSpeed 	13.999927026555
scalar RSUExampleScenario.node[117].veinsmobility 	totalDistance 	3413.6157544555
scalar RSUExampleScenario.node[117].veinsmobility 	totalCO2Emission 	751.65374440408
scalar RSUExampleScenario.node[118].veinsmobility 	startTime 	354.1
scalar RSUExampleScenario.node[118].veinsmobility 	totalTime 	330.4
scalar RSUExampleScenario.node[118].veinsmobility 	stopTime 	684.6
scalar RSUExampleScenario.node[118].veinsmobility 	minSpeed 	0.24923544600536
scalar RSUExampleScenario.node[118].veinsmobility 	maxSpeed 	13.999992203361
scalar RSUExampleScenario.node[118].veinsmobility 	totalDistance 	3409.6219000714
scalar RSUExampleScenario.node[118].veinsmobility 	totalCO2Emission 	750.96624218289
scalar RSUExampleScenario.node[119].veinsmobility 	startTime 	357.1
scalar RSUExampleScenario.node[119].veinsmobility 	totalTime 	331.1
scalar RSUExampleScenario.node[119].veinsmobility 	stopTime 	688.3
scalar RSUExampleScenario.node[119].veinsmobility 	minSpeed 	0.25507913325052
scalar RSUExampleScenario.node[119].veinsmobility 	maxSpeed 	13.999852530176
scalar RSUExampleScenario.node[119].veinsmobility 	totalDistance 	3413.8085346046
scalar RSUExampleScenario.node[119].veinsmobility 	totalCO2Emission 	752.61359616499
scalar RSUExampleScenario.node[120].veinsmobility 	startTime 	360.1
scalar RSUExampleScenario.node[120].veinsmobility 	totalTime 	331.8
scalar RSUExampleScenario.node[120].veinsmobility 	stopTime 	692
scalar RSUExampleScenario.node[120].veinsmobility 	minSpeed 	0.25746919682459
scalar RSUExampleScenario.node[120].veinsmobility 	maxSpeed 	13.99996838158
scalar RSUExampleScenario.node[120].veinsmobility 	totalDistance 	3409.9348068376
scalar RSUExampleScenario.node[120].veinsmobility 	totalCO2Emission 	754.55811370894
scalar RSUExampleScenario.node[121].veinsmobility 	startTime 	363.1
scalar RSUExampleScenario.node[121].veinsmobility 	totalTime 	332.5
scalar RSUExampleScenario.node[121].veinsmobility 	stopTime 	695.7
scalar RSUExampleScenario.node[121].veinsmobility 	minSpeed 	0.25442654438992
scalar RSUExampleScenario.node[121].veinsmobility 	maxSpeed 	13.999980937284
scalar RSUExampleScenario.node[121].veinsmobility 	totalDistance 	3414.295510485
scalar RSUExampleScenario.node[121].veinsmobility 	totalCO2Emission 	754.36102502919
scalar RSUExampleScenario.node[122].veinsmobility 	startTime 	366.1
scalar RSUExampleScenario.node[122].veinsmobility 	totalTime 	333.1
scalar RSUExampleScenario.node[122].veinsmobility 	stopTime 	699.3
scalar RSUExampleScenario.node[122].veinsmobility 	minSpeed 	0.24955752388458
scalar RSUExampleScenario.node[122].veinsmobility 	maxSpeed 	13.999944559406
scalar RSUExampleScenario.node[122].veinsmobility 	totalDistance 	3409.574430277
scalar RSUExampleScenario.node[122].veinsmobility 	totalCO2Emission 	758.33218034048
scalar RSUExampleScenario.node[123].veinsmobility 	startTime 	369.1
scalar RSUExampleScenario.node[123].veinsmobility 	totalTime 	333.8
scalar RSUExampleScenario.node[123].veinsmobility 	stopTime 	703
scalar RSUExampleScenario.node[123].veinsmobility 	minSpeed 	0.25245914189564
scalar RSUExampleScenario.node[123].veinsmobility 	maxSpeed 	13.999926650687
scalar RSUExampleScenario.node[123].veinsmobility 	totalDistance 	3413.7261154007
scalar RSUExampleScenario.node[123].veinsmobility 	totalCO2Emission 	752.84588166998
scalar RSUExampleScenario.node[124].veinsmobility 	startTime 	372.1
scalar RSUExampleScenario.node[124].veinsmobility 	totalTime 	334.5
scalar RSUExampleScenario.node[124].veinsmobility 	stopTime 	706.7
scalar RSUExampleScenario.node[124].veinsmobility 	minSpeed 	0.2547764235544
scalar RSUExampleScenario.node[124].veinsmobility 	maxSpeed 	13.999969156773
scalar RSUExampleScenario.node[124].veinsmobility 	totalDistance 	3410.0203464754
scalar RSUExampleScenario.node[124].veinsmobility 	totalCO2Emission 	757.92315489036
scalar RSUExampleScenario.node[125].veinsmobility 	startTime 	375.1
scalar RSUExampleScenario.node[125].veinsmobility 	totalTime 	335.2
scalar RSUExampleScenario.node[125].veinsmobility 	stopTime 	710.4
scalar RSUExampleScenario.node[125].veinsmobility 	minSpeed 	0.24989217929752
scalar RSUExampleScenario.node[125].veinsmobility 	maxSpeed 	13.999997466963
scalar RSUExampleScenario.node[125].veinsmobility 	totalDistance 	3413.7357527925
scalar RSUExampleScenario.node[125].veinsmobility 	totalCO2Emission 	758.56197753502
scalar RSUExampleScenario.node[126].veinsmobility 	startTime 	378.1
scalar RSUExampleScenario.node[126].veinsmobility 	totalTime 	335.9
scalar RSUExampleScenario.node[126].veinsmobility 	stopTime 	714.1
scalar RSUExampleScenario.node[126].veinsmobility 	minSpeed 	0.24982782393438
scalar RSUExampleScenario.node[126].veinsmobility 	maxSpeed 	13.999960937926
scalar RSUExampleScenario.node[126].veinsmobility 	totalDistance 	3409.7349759176
scalar RSUExampleScenario.node[126].veinsmobility 	totalCO2Emission 	756.49447935451
scalar RSUExampleScenario.node[127].veinsmobility 	startTime 	381.1
scalar RSUExampleScenario.node[127].veinsmobility 	totalTime 	336.5
scalar RSUExampleScenario.node[127].veinsmobility 	stopTime 	717.7
scalar RSUExampleScenario.node[127].veinsmobility 	minSpeed 	0.25403433455131
scalar RSUExampleScenario.node[127].veinsmobility 	maxSpeed 	13.999953601602
scalar RSUExampleScenario.node[127].veinsmobility 	totalDistance 	3413.8249448076
scalar RSUExampleScenario.node[127].veinsmobility 	totalCO2Emission 	757.39823730826
scalar RSUExampleScenario.node[128].veinsmobility 	startTime 	384.1
scalar RSUExampleScenario.node[128].veinsmobility 	totalTime 	337.2
scalar RSUExampleScenario.node[128].veinsmobility 	stopTime 	721.4
scalar RSUExampleScenario.node[128].veinsmobility 	minSpeed 	0.24721579289273
scalar RSUExampleScenario.node[128].veinsmobility 	maxSpeed 	13.999944560858
scalar RSUExampleScenario.node[128].veinsmobility 	totalDistance 	3410.0096852104
scalar RSUExampleScenario.node[128].veinsmobility 	totalCO2Emission 	756.54338121378
scalar RSUExampleScenario.node[129].veinsmobility 	startTime 	387.1
scalar RSUExampleScenario.node[129].veinsmobility 	totalTime 	337.9
scalar RSUExampleScenario.node[129].veinsmobility 	stopTime 	725.1
scalar RSUExampleScenario.node[129].veinsmobility 	minSpeed 	0.24901565743913
scalar RSUExampleScenario.node[129].veinsmobility 	maxSpeed 	13.999988004253
scalar RSUExampleScenario.node[129].veinsmobility 	totalDistance 	3413.9635130959
scalar RSUExampleScenario.node[129].veinsmobility 	totalCO2Emission 	760.22627146534
scalar RSUExampleScenario.node[130].veinsmobility 	startTime 	390.1
scalar RSUExampleScenario.node[130].veinsmobility 	totalTime 	338.7
scalar RSUExampleScenario.node[130].veinsmobility 	stopTime 	728.9
scalar RSUExampleScenario.node[130].veinsmobility 	minSpeed 	0.25513746636547
scalar RSUExampleScenario.node[130].veinsmobility 	maxSpeed 	13.999935365506
scalar RSUExampleScenario.node[130].veinsmobility 	totalDistance 	3410.2712791341
scalar RSUExampleScenario.node[130].veinsmobility 	totalCO2Emission 	762.99956485796
scalar RSUExampleScenario.node[131].veinsmobility 	startTime 	393.1
scalar RSUExampleScenario.node[131].veinsmobility 	totalTime 	339.4
scalar RSUExampleScenario.node[131].veinsmobility 	stopTime 	732.6
scalar RSUExampleScenario.node[131].veinsmobility 	minSpeed 	0.25898642893694
scalar RSUExampleScenario.node[131].veinsmobility 	maxSpeed 	13.999986957798
scalar RSUExampleScenario.node[131].veinsmobility 	totalDistance 	3413.813313563
scalar RSUExampleScenario.node[131].veinsmobility 	totalCO2Emission 	763.13693913857
scalar RSUExampleScenario.node[132].veinsmobility 	startTime 	396.1
scalar RSUExampleScenario.node[132].veinsmobility 	totalTime 	340.1
scalar RSUExampleScenario.node[132].veinsmobility 	stopTime 	736.3
scalar RSUExampleScenario.node[132].veinsmobility 	minSpeed 	0.25300713008316
scalar RSUExampleScenario.node[132].veinsmobility 	maxSpeed 	13.999953675063
scalar RSUExampleScenario.node[132].veinsmobility 	totalDistance 	3410.2443537127
scalar RSUExampleScenario.node[132].veinsmobility 	totalCO2Emission 	761.43196970364
scalar RSUExampleScenario.node[133].veinsmobility 	startTime 	399.1
scalar RSUExampleScenario.node[133].veinsmobility 	totalTime 	340.7
scalar RSUExampleScenario.node[133].veinsmobility 	stopTime 	739.9
scalar RSUExampleScenario.node[133].veinsmobility 	minSpeed 	0.24794361255737
scalar RSUExampleScenario.node[133].veinsmobility 	maxSpeed 	13.999875337889
scalar RSUExampleScenario.node[133].veinsmobility 	totalDistance 	3413.8943068925
scalar RSUExampleScenario.node[133].veinsmobility 	totalCO2Emission 	763.09553095817
scalar RSUExampleScenario.node[134].veinsmobility 	startTime 	402.1
scalar RSUExampleScenario.node[134].veinsmobility 	totalTime 	341.4
scalar RSUExampleScenario.node[134].veinsmobility 	stopTime 	743.6
scalar RSUExampleScenario.node[134].veinsmobility 	minSpeed 	0.24829352011322
scalar RSUExampleScenario.node[134].veinsmobility 	maxSpeed 	13.999990726404
scalar RSUExampleScenario.node[134].veinsmobility 	totalDistance 	3409.8707831599
scalar RSUExampleScenario.node[134].veinsmobility 	totalCO2Emission 	764.24432781691
scalar RSUExampleScenario.node[135].veinsmobility 	startTime 	405.1
scalar RSUExampleScenario.node[135].veinsmobility 	totalTime 	342
scalar RSUExampleScenario.node[135].veinsmobility 	stopTime 	747.2
scalar RSUExampleScenario.node[135].veinsmobility 	minSpeed 	0.24831243904075
scalar RSUExampleScenario.node[135].veinsmobility 	maxSpeed 	13.999816934271
scalar RSUExampleScenario.node[135].veinsmobility 	totalDistance 	3413.8110129552
scalar RSUExampleScenario.node[135].veinsmobility 	totalCO2Emission 	763.18448692393
scalar RSUExampleScenario.node[136].veinsmobility 	startTime 	408.1
scalar RSUExampleScenario.node[136].veinsmobility 	totalTime 	342.8
scalar RSUExampleScenario.node[136].veinsmobility 	stopTime 	751
scalar RSUExampleScenario.node[136].veinsmobility 	minSpeed 	0.25821031644102
scalar RSUExampleScenario.node[136].veinsmobility 	maxSpeed 	13.999995914337
scalar RSUExampleScenario.node[136].veinsmobility 	totalDistance 	3410.1256116808
scalar RSUExampleScenario.node[136].veinsmobility 	totalCO2Emission 	763.38042569813
scalar RSUExampleScenario.node[137].veinsmobility 	startTime 	411.1
scalar RSUExampleScenario.node[137].veinsmobility 	totalTime 	343.5
scalar RSUExampleScenario.node[137].veinsmobility 	stopTime 	754.7
scalar RSUExampleScenario.node[137].veinsmobility 	minSpeed 	0.25375266702729
scalar RSUExampleScenario.node[137].veinsmobility 	maxSpeed 	13.999911816621
scalar RSUExampleScenario.node[137].veinsmobility 	totalDistance 	3414.4486471312
scalar RSUExampleScenario.node[137].veinsmobility 	totalCO2Emission 	764.83202041806
scalar RSUExampleScenario.node[138].veinsmobility 	startTime 	414.1
scalar RSUExampleScenario.node[138].veinsmobility 	totalTime 	344.2
scalar RSUExampleScenario.node[138].veinsmobility 	stopTime 	758.4
scalar RSUExampleScenario.node[138].veinsmobility 	minSpeed 	0.25884995927033
scalar RSUExampleScenario.node[138].veinsmobility 	maxSpeed 	13.999962840693
scalar RSUExampleScenario.node[138].veinsmobility 	totalDistance 	3409.5397226253
scalar RSUExampleScenario.node[138].veinsmobility 	totalCO2Emission 	766.43074193468
scalar RSUExampleScenario.node[139].veinsmobility 	startTime 	417.1
scalar RSUExampleScenario.node[139].veinsmobility 	totalTime 	344.9
scalar RSUExampleScenario.node[139].veinsmobility 	stopTime 	762.1
scalar RSUExampleScenario.node[139].veinsmobility 	minSpeed 	0.24846428272431
scalar RSUExampleScenario.node[139].veinsmobility 	maxSpeed 	13.999993338592
scalar RSUExampleScenario.node[139].veinsmobility 	totalDistance 	3410.0235881431
scalar RSUExampleScenario.node[139].veinsmobility 	totalCO2Emission 	765.7402614771
scalar RSUExampleScenario.node[140].veinsmobility 	startTime 	420.1
scalar RSUExampleScenario.node[140].veinsmobility 	totalTime 	345.6
scalar RSUExampleScenario.node[140].veinsmobility 	stopTime 	765.8
scalar RSUExampleScenario.node[140].veinsmobility 	minSpeed 	0.25871526779025
scalar RSUExampleScenario.node[140].veinsmobility 	maxSpeed 	13.999962631359
scalar RSUExampleScenario.node[140].veinsmobility 	totalDistance 	3413.7572158031
scalar RSUExampleScenario.node[140].veinsmobility 	totalCO2Emission 	769.0696739531
scalar RSUExampleScenario.node[141].veinsmobility 	startTime 	423.1
scalar RSUExampleScenario.node[141].veinsmobility 	totalTime 	346.3
scalar RSUExampleScenario.node[141].veinsmobility 	stopTime 	769.5
scalar RSUExampleScenario.node[141].veinsmobility 	minSpeed 	0.25570816629799
scalar RSUExampleScenario.node[141].veinsmobility 	maxSpeed 	13.999999422668
scalar RSUExampleScenario.node[141].veinsmobility 	totalDistance 	3409.9237804702
scalar RSUExampleScenario.node[141].veinsmobility 	totalCO2Emission 	765.3814337743
scalar RSUExampleScenario.node[142].veinsmobility 	startTime 	426.1
scalar RSUExampleScenario.node[142].veinsmobility 	totalTime 	347
scalar RSUExampleScenario.node[142].veinsmobility 	stopTime 	773.2
scalar RSUExampleScenario.node[142].veinsmobility 	minSpeed 	0.2472216637677
scalar RSUExampleScenario.node[142].veinsmobility 	maxSpeed 	13.999983499742
scalar RSUExampleScenario.node[142].veinsmobility 	totalDistance 	3414.0167433978
scalar RSUExampleScenario.node[142].veinsmobility 	totalCO2Emission 	764.50685428422
scalar RSUExampleScenario.node[143].veinsmobility 	startTime 	429.1
scalar RSUExampleScenario.node[143].veinsmobility 	totalTime 	347.6
scalar RSUExampleScenario.node[143].veinsmobility 	stopTime 	776.8
scalar RSUExampleScenario.node[143].veinsmobility 	minSpeed 	0.25376123926532
scalar RSUExampleScenario.node[143].veinsmobility 	maxSpeed 	13.999873435698
scalar RSUExampleScenario.node[143].veinsmobility 	totalDistance 	3409.5850682625
scalar RSUExampleScenario.node[143].veinsmobility 	totalCO2Emission 	767.23985063385
scalar RSUExampleScenario.node[144].veinsmobility 	startTime 	432.1
scalar RSUExampleScenario.node[144].veinsmobility 	totalTime 	348.2
scalar RSUExampleScenario.node[144].veinsmobility 	stopTime 	780.4
scalar RSUExampleScenario.node[144].veinsmobility 	minSpeed 	0.24996337359049
scalar RSUExampleScenario.node[144].veinsmobility 	maxSpeed 	13.999984822029
scalar RSUExampleScenario.node[144].veinsmobility 	totalDistance 	3413.9281631533
scalar RSUExampleScenario.node[144].veinsmobility 	totalCO2Emission 	769.77990800024
scalar RSUExampleScenario.node[145].veinsmobility 	startTime 	435.1
scalar RSUExampleScenario.node[145].veinsmobility 	totalTime 	348.8
scalar RSUExampleScenario.node[145].veinsmobility 	stopTime 	784
scalar RSUExampleScenario.node[145].veinsmobility 	minSpeed 	0.25912246973044
scalar RSUExampleScenario.node[145].veinsmobility 	maxSpeed 	13.999974444832
scalar RSUExampleScenario.node[145].veinsmobility 	totalDistance 	3409.8516883039
scalar RSUExampleScenario.node[145].veinsmobility 	totalCO2Emission 	774.81954778455
scalar RSUExampleScenario.node[146].veinsmobility 	startTime 	438.1
scalar RSUExampleScenario.node[146].veinsmobility 	totalTime 	349.4
scalar RSUExampleScenario.node[146].veinsmobility 	stopTime 	787.6
scalar RSUExampleScenario.node[146].veinsmobility 	minSpeed 	0.25742868769891
scalar RSUExampleScenario.node[146].veinsmobility 	maxSpeed 	13.999924943058
scalar RSUExampleScenario.node[146].veinsmobility 	totalDistance 	3413.8752234604
scalar RSUExampleScenario.node[146].veinsmobility 	totalCO2Emission 	770.730111908
scalar RSUExampleScenario.node[147].veinsmobility 	startTime 	441.1
scalar RSUExampleScenario.node[147].veinsmobility 	totalTime 	350.1
scalar RSUExampleScenario.node[147].veinsmobility 	stopTime 	791.3
scalar RSUExampleScenario.node[147].veinsmobility 	minSpeed 	0.25617243794026
scalar RSUExampleScenario.node[147].veinsmobility 	maxSpeed 	13.999993516901
scalar RSUExampleScenario.node[147].veinsmobility 	totalDistance 	3410.1586682411
scalar RSUExampleScenario.node[147].veinsmobility 	totalCO2Emission 	772.37695508068
scalar RSUExampleScenario.node[148].veinsmobility 	startTime 	444.1
scalar RSUExampleScenario.node[148].veinsmobility 	totalTime 	350.7
scalar RSUExampleScenario.node[148].veinsmobility 	stopTime 	794.9
scalar RSUExampleScenario.node[148].veinsmobility 	minSpeed 	0.25413262606296
scalar RSUExampleScenario.node[148].veinsmobility 	maxSpeed 	13.999994504484
scalar RSUExampleScenario.node[148].veinsmobility 	totalDistance 	3413.7564753017
scalar RSUExampleScenario.node[148].veinsmobility 	totalCO2Emission 	773.9527167473
scalar RSUExampleScenario.node[149].veinsmobility 	startTime 	447.1
scalar RSUExampleScenario.node[149].veinsmobility 	totalTime 	351.3
scalar RSUExampleScenario.node[149].veinsmobility 	stopTime 	798.5
scalar RSUExampleScenario.node[149].veinsmobility 	minSpeed 	0.25001329330471
scalar RSUExampleScenario.node[149].veinsmobility 	maxSpeed 	13.999941242367
scalar RSUExampleScenario.node[149].veinsmobility 	totalDistance 	3409.5138902032
scalar RSUExampleScenario.node[149].veinsmobility 	totalCO2Emission 	769.38802256707
scalar RSUExampleScenario.node[150].veinsmobility 	startTime 	450.1
scalar RSUExampleScenario.node[150].veinsmobility 	totalTime 	352
scalar RSUExampleScenario.node[150].veinsmobility 	stopTime 	802.2
scalar RSUExampleScenario.node[150].veinsmobility 	minSpeed 	0.25198578795744
scalar RSUExampleScenario.node[150].veinsmobility 	maxSpeed 	13.999976011049
scalar RSUExampleScenario.node[150].veinsmobility 	totalDistance 	3414.3480271688
scalar RSUExampleScenario.node[150].veinsmobility 	totalCO2Emission 	774.39494214144
scalar RSUExampleScenario.node[151].veinsmobility 	startTime 	453.1
scalar RSUExampleScenario.node[151].veinsmobility 	totalTime 	352.7
scalar RSUExampleScenario.node[151].veinsmobility 	stopTime 	805.9
scalar RSUExampleScenario.node[151].veinsmobility 	minSpeed 	0.24948111446342
scalar RSUExampleScenario.node[151].veinsmobility 	maxSpeed 	13.99979836904
scalar RSUExampleScenario.node[151].veinsmobility 	totalDistance 	3410.2523480126
scalar RSUExampleScenario.node[151].veinsmobility 	totalCO2Emission 	772.55301340418
scalar RSUExampleScenario.node[152].veinsmobility 	startTime 	456.1
scalar RSUExampleScenario.node[152].veinsmobility 	totalTime 	353.4
scalar RSUExampleScenario.node[152].veinsmobility 	stopTime 	809.6
scalar RSUExampleScenario.node[152].veinsmobility 	minSpeed 	0.24771353617893
scalar RSUExampleScenario.node[152].veinsmobility 	maxSpeed 	13.999979037242
scalar RSUExampleScenario.node[152].veinsmobility 	totalDistance 	3413.8507052957
[...]
scalar RSUExampleScenario.node[259].veinsmobility 	totalTime 	427.3
scalar RSUExampleScenario.node[259].veinsmobility 	stopTime 	1204.5
scalar RSUExampleScenario.node[259].veinsmobility 	minSpeed 	0.25318398108403
scalar RSUExampleScenario.node[259].veinsmobility 	maxSpeed 	13.999643156938
scalar RSUExampleScenario.node[259].veinsmobility 	totalDistance 	3410.3147434119
scalar RSUExampleScenario.node[259].veinsmobility 	totalCO2Emission 	847.80243068181
scalar RSUExampleScenario.node[260].veinsmobility 	startTime 	780.1
scalar RSUExampleScenario.node[260].veinsmobility 	totalTime 	428
scalar RSUExampleScenario.node[260].veinsmobility 	stopTime 	1208.2
scalar RSUExampleScenario.node[260].veinsmobility 	minSpeed 	0.25948545344872
scalar RSUExampleScenario.node[260].veinsmobility 	maxSpeed 	13.999971926233
scalar RSUExampleScenario.node[260].veinsmobility 	totalDistance 	3414.384084706
scalar RSUExampleScenario.node[260].veinsmobility 	totalCO2Emission 	849.55395394036
scalar RSUExampleScenario.node[261].veinsmobility 	startTime 	783.1
scalar RSUExampleScenario.node[261].veinsmobility 	totalTime 	428.8
scalar RSUExampleScenario.node[261].veinsmobility 	stopTime 	1212
scalar RSUExampleScenario.node[261].veinsmobility 	minSpeed 	0.24790104783303
scalar RSUExampleScenario.node[261].veinsmobility 	maxSpeed 	13.999958209994
scalar RSUExampleScenario.node[261].veinsmobility 	totalDistance 	3410.3568345589
scalar RSUExampleScenario.node[261].veinsmobility 	totalCO2Emission 	849.3697543071
scalar RSUExampleScenario.node[262].veinsmobility 	startTime 	786.1
scalar RSUExampleScenario.node[262].veinsmobility 	totalTime 	429.5
scalar RSUExampleScenario.node[262].veinsmobility 	stopTime 	1215.7
scalar RSUExampleScenario.node[262].veinsmobility 	minSpeed 	0.25809334843024
scalar RSUExampleScenario.node[262].veinsmobility 	maxSpeed 	13.999861381564
scalar RSUExampleScenario.node[262].veinsmobility 	totalDistance 	3414.5479923855
scalar RSUExampleScenario.node[262].veinsmobility 	totalCO2Emission 	850.63899571879
scalar RSUExampleScenario.node[263].veinsmobility 	startTime 	789.1
scalar RSUExampleScenario.node[263].veinsmobility 	totalTime 	430.1
scalar RSUExampleScenario.node[263].veinsmobility 	stopTime 	1219.3
scalar RSUExampleScenario.node[263].veinsmobility 	minSpeed 	0.24886755115539
scalar RSUExampleScenario.node[263].veinsmobility 	maxSpeed 	13.99985621158
scalar RSUExampleScenario.node[263].veinsmobility 	totalDistance 	3409.6619859134
scalar RSUExampleScenario.node[263].veinsmobility 	totalCO2Emission 	852.73741531172
scalar RSUExampleScenario.node[264].veinsmobility 	startTime 	792.1
scalar RSUExampleScenario.node[264].veinsmobility 	totalTime 	430.8
scalar RSUExampleScenario.node[264].veinsmobility 	stopTime 	1223
scalar RSUExampleScenario.node[264].veinsmobility 	minSpeed 	0.25839101916086
scalar RSUExampleScenario.node[264].veinsmobility 	maxSpeed 	13.999953511737
scalar RSUExampleScenario.node[264].veinsmobility 	totalDistance 	3413.9895815908
scalar RSUExampleScenario.node[264].veinsmobility 	totalCO2Emission 	854.42170352542
scalar RSUExampleScenario.node[265].veinsmobility 	startTime 	795.1
scalar RSUExampleScenario.node[265].veinsmobility 	totalTime 	431.5
scalar RSUExampleScenario.node[265].veinsmobility 	stopTime 	1226.7
scalar RSUExampleScenario.node[265].veinsmobility 	minSpeed 	0.24754738940508
scalar RSUExampleScenario.node[265].veinsmobility 	maxSpeed 	13.999747684938
scalar RSUExampleScenario.node[265].veinsmobility 	totalDistance 	3409.9767071274
scalar RSUExampleScenario.node[265].veinsmobility 	totalCO2Emission 	852.33893268819
scalar RSUExampleScenario.node[266].veinsmobility 	startTime 	798.1
scalar RSUExampleScenario.node[266].veinsmobility 	totalTime 	432.1
scalar RSUExampleScenario.node[266].veinsmobility 	stopTime 	1230.3
scalar RSUExampleScenario.node[266].veinsmobility 	minSpeed 	0.25424818699388
scalar RSUExampleScenario.node[266].veinsmobility 	maxSpeed 	13.999982966511
scalar RSUExampleScenario.node[266].veinsmobility 	totalDistance 	3414.0836688101
scalar RSUExampleScenario.node[266].veinsmobility 	totalCO2Emission 	852.07619623997
scalar RSUExampleScenario.node[267].veinsmobility 	startTime 	801.1
scalar RSUExampleScenario.node[267].veinsmobility 	totalTime 	432.8
scalar RSUExampleScenario.node[267].veinsmobility 	stopTime 	1234
scalar RSUExampleScenario.node[267].veinsmobility 	minSpeed 	0.24827748244652
scalar RSUExampleScenario.node[267].veinsmobility 	maxSpeed 	13.999992704357
scalar RSUExampleScenario.node[267].veinsmobility 	totalDistance 	3409.9564610725
scalar RSUExampleScenario.node[267].veinsmobility 	totalCO2Emission 	855.34017241578
scalar RSUExampleScenario.node[268].veinsmobility 	startTime 	804.1
scalar RSUExampleScenario.node[268].veinsmobility 	totalTime 	433.5
scalar RSUExampleScenario.node[268].veinsmobility 	stopTime 	1237.7
scalar RSUExampleScenario.node[268].veinsmobility 	minSpeed 	0.25528499677358
scalar RSUExampleScenario.node[268].veinsmobility 	maxSpeed 	13.999929687656
scalar RSUExampleScenario.node[268].veinsmobility 	totalDistance 	3414.1943833235
scalar RSUExampleScenario.node[268].veinsmobility 	totalCO2Emission 	852.31382288816
scalar RSUExampleScenario.node[269].veinsmobility 	startTime 	807.1
scalar RSUExampleScenario.node[269].veinsmobility 	totalTime 	434.3
scalar RSUExampleScenario.node[269].veinsmobility 	stopTime 	1241.5
scalar RSUExampleScenario.node[269].veinsmobility 	minSpeed 	0.25188702840591
scalar RSUExampleScenario.node[269].veinsmobility 	maxSpeed 	13.999985118171
scalar RSUExampleScenario.node[269].veinsmobility 	totalDistance 	3410.3238034209
scalar RSUExampleScenario.node[269].veinsmobility 	totalCO2Emission 	854.97778338535
scalar RSUExampleScenario.node[270].veinsmobility 	startTime 	810.1
scalar RSUExampleScenario.node[270].veinsmobility 	totalTime 	435
scalar RSUExampleScenario.node[270].veinsmobility 	stopTime 	1245.2
scalar RSUExampleScenario.node[270].veinsmobility 	minSpeed 	0.25508947087475
scalar RSUExampleScenario.node[270].veinsmobility 	maxSpeed 	13.999968060921
scalar RSUExampleScenario.node[270].veinsmobility 	totalDistance 	3413.9835413525
scalar RSUExampleScenario.node[270].veinsmobility 	totalCO2Emission 	859.81101039633
scalar RSUExampleScenario.node[271].veinsmobility 	startTime 	813.1
scalar RSUExampleScenario.node[271].veinsmobility 	totalTime 	435.7
scalar RSUExampleScenario.node[271].veinsmobility 	stopTime 	1248.9
scalar RSUExampleScenario.node[271].veinsmobility 	minSpeed 	0.24975098447781
scalar RSUExampleScenario.node[271].veinsmobility 	maxSpeed 	13.999884054493
scalar RSUExampleScenario.node[271].veinsmobility 	totalDistance 	3409.940090874
scalar RSUExampleScenario.node[271].veinsmobility 	totalCO2Emission 	860.77237554823
scalar RSUExampleScenario.node[272].veinsmobility 	startTime 	816.1
scalar RSUExampleScenario.node[272].veinsmobility 	totalTime 	436.4
scalar RSUExampleScenario.node[272].veinsmobility 	stopTime 	1252.6
scalar RSUExampleScenario.node[272].veinsmobility 	minSpeed 	0.25702940049442
scalar RSUExampleScenario.node[272].veinsmobility 	maxSpeed 	13.999766896935
scalar RSUExampleScenario.node[272].veinsmobility 	totalDistance 	3413.8823030523
scalar RSUExampleScenario.node[272].veinsmobility 	totalCO2Emission 	853.46218600481
scalar RSUExampleScenario.node[273].veinsmobility 	startTime 	819.1
scalar RSUExampleScenario.node[273].veinsmobility 	totalTime 	437.2
scalar RSUExampleScenario.node[273].veinsmobility 	stopTime 	1256.4
scalar RSUExampleScenario.node[273].veinsmobility 	minSpeed 	0.2538733478603
scalar RSUExampleScenario.node[273].veinsmobility 	maxSpeed 	13.999952149768
scalar RSUExampleScenario.node[273].veinsmobility 	totalDistance 	3410.3667503159
scalar RSUExampleScenario.node[273].veinsmobility 	totalCO2Emission 	853.96214530848
scalar RSUExampleScenario.node[274].veinsmobility 	startTime 	822.1
scalar RSUExampleScenario.node[274].veinsmobility 	totalTime 	437.9
scalar RSUExampleScenario.node[274].veinsmobility 	stopTime 	1260.1
scalar RSUExampleScenario.node[274].veinsmobility 	minSpeed 	0.25024801434157
scalar RSUExampleScenario.node[274].veinsmobility 	maxSpeed 	13.999968662467
scalar RSUExampleScenario.node[274].veinsmobility 	totalDistance 	3410.2334557241
scalar RSUExampleScenario.node[274].veinsmobility 	totalCO2Emission 	861.36720974852
scalar RSUExampleScenario.node[275].veinsmobility 	startTime 	825.1
scalar RSUExampleScenario.node[275].veinsmobility 	totalTime 	438.6
scalar RSUExampleScenario.node[275].veinsmobility 	stopTime 	1263.8
scalar RSUExampleScenario.node[275].veinsmobility 	minSpeed 	0.24945552124269
scalar RSUExampleScenario.node[275].veinsmobility 	maxSpeed 	13.999822259347
scalar RSUExampleScenario.node[275].veinsmobility 	totalDistance 	3414.151593306
scalar RSUExampleScenario.node[275].veinsmobility 	totalCO2Emission 	858.96369185735
scalar RSUExampleScenario.node[276].veinsmobility 	startTime 	828.1
scalar RSUExampleScenario.node[276].veinsmobility 	totalTime 	439.3
scalar RSUExampleScenario.node[276].veinsmobility 	stopTime 	1267.5
scalar RSUExampleScenario.node[276].veinsmobility 	minSpeed 	0.24712142684194
scalar RSUExampleScenario.node[276].veinsmobility 	maxSpeed 	13.999922706224
scalar RSUExampleScenario.node[276].veinsmobility 	totalDistance 	3410.2199274965
scalar RSUExampleScenario.node[276].veinsmobility 	totalCO2Emission 	863.18368821007
scalar RSUExampleScenario.node[277].veinsmobility 	startTime 	831.1
scalar RSUExampleScenario.node[277].veinsmobility 	totalTime 	440
scalar RSUExampleScenario.node[277].veinsmobility 	stopTime 	1271.2
scalar RSUExampleScenario.node[277].veinsmobility 	minSpeed 	0.25169595969771
scalar RSUExampleScenario.node[277].veinsmobility 	maxSpeed 	13.999962702277
scalar RSUExampleScenario.node[277].veinsmobility 	totalDistance 	3414.152147324
scalar RSUExampleScenario.node[277].veinsmobility 	totalCO2Emission 	865.664739728
scalar RSUExampleScenario.node[278].veinsmobility 	startTime 	834.1
scalar RSUExampleScenario.node[278].veinsmobility 	totalTime 	440.7
scalar RSUExampleScenario.node[278].veinsmobility 	stopTime 	1274.9
scalar RSUExampleScenario.node[278].veinsmobility 	minSpeed 	0.25891911370098
scalar RSUExampleScenario.node[278].veinsmobility 	maxSpeed 	13.999977685141
scalar RSUExampleScenario.node[278].veinsmobility 	totalDistance 	3409.916500118
scalar RSUExampleScenario.node[278].veinsmobility 	totalCO2Emission 	862.60254449289
scalar RSUExampleScenario.node[279].veinsmobility 	startTime 	837.1
scalar RSUExampleScenario.node[279].veinsmobility 	totalTime 	441.4
scalar RSUExampleScenario.node[279].veinsmobility 	stopTime 	1278.6
scalar RSUExampleScenario.node[279].veinsmobility 	minSpeed 	0.24883308723313
scalar RSUExampleScenario.node[279].veinsmobility 	maxSpeed 	13.999916539667
scalar RSUExampleScenario.node[279].veinsmobility 	totalDistance 	3414.1097514357
scalar RSUExampleScenario.node[279].veinsmobility 	totalCO2Emission 	864.17249533214
scalar RSUExampleScenario.node[280].veinsmobility 	startTime 	840.1
scalar RSUExampleScenario.node[280].veinsmobility 	totalTime 	442.1
scalar RSUExampleScenario.node[280].veinsmobility 	stopTime 	1282.3
scalar RSUExampleScenario.node[280].veinsmobility 	minSpeed 	0.25614645286417
scalar RSUExampleScenario.node[280].veinsmobility 	maxSpeed 	13.999989647199
scalar RSUExampleScenario.node[280].veinsmobility 	totalDistance 	3409.84062245
scalar RSUExampleScenario.node[280].veinsmobility 	totalCO2Emission 	860.91295346239
scalar RSUExampleScenario.node[281].veinsmobility 	startTime 	843.1
scalar RSUExampleScenario.node[281].veinsmobility 	totalTime 	442.8
scalar RSUExampleScenario.node[281].veinsmobility 	stopTime 	1286
scalar RSUExampleScenario.node[281].veinsmobility 	minSpeed 	0.2482729240912
scalar RSUExampleScenario.node[281].veinsmobility 	maxSpeed 	13.999974243399
scalar RSUExampleScenario.node[281].veinsmobility 	totalDistance 	3414.576879202
scalar RSUExampleScenario.node[281].veinsmobility 	totalCO2Emission 	868.20522404343
scalar RSUExampleScenario.node[282].veinsmobility 	startTime 	846.1
scalar RSUExampleScenario.node[282].veinsmobility 	totalTime 	443.5
scalar RSUExampleScenario.node[282].veinsmobility 	stopTime 	1289.7
scalar RSUExampleScenario.node[282].veinsmobility 	minSpeed 	0.2585196859804
scalar RSUExampleScenario.node[282].veinsmobility 	maxSpeed 	13.999862373567
scalar RSUExampleScenario.node[282].veinsmobility 	totalDistance 	3409.7335139178
scalar RSUExampleScenario.node[282].veinsmobility 	totalCO2Emission 	863.63665063638
scalar RSUExampleScenario.node[283].veinsmobility 	startTime 	849.1
scalar RSUExampleScenario.node[283].veinsmobility 	totalTime 	444.2
scalar RSUExampleScenario.node[283].veinsmobility 	stopTime 	1293.4
scalar RSUExampleScenario.node[283].veinsmobility 	minSpeed 	0.25266413496598
scalar RSUExampleScenario.node[283].veinsmobility 	maxSpeed 	13.999999801109
scalar RSUExampleScenario.node[283].veinsmobility 	totalDistance 	3414.0006331901
scalar RSUExampleScenario.node[283].veinsmobility 	totalCO2Emission 	864.58177656116
scalar RSUExampleScenario.node[284].veinsmobility 	startTime 	852.1
scalar RSUExampleScenario.node[284].veinsmobility 	totalTime 	444.8
scalar RSUExampleScenario.node[284].veinsmobility 	stopTime 	1297
scalar RSUExampleScenario.node[284].veinsmobility 	minSpeed 	0.25072509304876
scalar RSUExampleScenario.node[284].veinsmobility 	maxSpeed 	13.999994594865
scalar RSUExampleScenario.node[284].veinsmobility 	totalDistance 	3409.6815447831
scalar RSUExampleScenario.node[284].veinsmobility 	totalCO2Emission 	868.72065931099
scalar RSUExampleScenario.node[285].veinsmobility 	startTime 	855.1
scalar RSUExampleScenario.node[285].veinsmobility 	totalTime 	445.5
scalar RSUExampleScenario.node[285].veinsmobility 	stopTime 	1300.7
scalar RSUExampleScenario.node[285].veinsmobility 	minSpeed 	0.25639830157533
scalar RSUExampleScenario.node[285].veinsmobility 	maxSpeed 	13.999969106771
scalar RSUExampleScenario.node[285].veinsmobility 	totalDistance 	3414.2722681535
scalar RSUExampleScenario.node[285].veinsmobility 	totalCO2Emission 	866.87811581468
scalar RSUExampleScenario.node[286].veinsmobility 	startTime 	858.1
scalar RSUExampleScenario.node[286].veinsmobility 	totalTime 	446.2
scalar RSUExampleScenario.node[286].veinsmobility 	stopTime 	1304.4
scalar RSUExampleScenario.node[286].veinsmobility 	minSpeed 	0.25318694701046
scalar RSUExampleScenario.node[286].veinsmobility 	maxSpeed 	13.999983264378
scalar RSUExampleScenario.node[286].veinsmobility 	totalDistance 	3410.012336967
scalar RSUExampleScenario.node[286].veinsmobility 	totalCO2Emission 	866.37008426773
scalar RSUExampleScenario.node[287].veinsmobility 	startTime 	861.1
scalar RSUExampleScenario.node[287].veinsmobility 	totalTime 	446.9
scalar RSUExampleScenario.node[287].veinsmobility 	stopTime 	1308.1
scalar RSUExampleScenario.node[287].veinsmobility 	minSpeed 	0.25598639220395
scalar RSUExampleScenario.node[287].veinsmobility 	maxSpeed 	13.999981250952
scalar RSUExampleScenario.node[287].veinsmobility 	totalDistance 	3409.9325053936
scalar RSUExampleScenario.node[287].veinsmobility 	totalCO2Emission 	870.03251869303
scalar RSUExampleScenario.node[288].veinsmobility 	startTime 	864.1
scalar RSUExampleScenario.node[288].veinsmobility 	totalTime 	447.5
scalar RSUExampleScenario.node[288].veinsmobility 	stopTime 	1311.7
scalar RSUExampleScenario.node[288].veinsmobility 	minSpeed 	0.25288652676647
scalar RSUExampleScenario.node[288].veinsmobility 	maxSpeed 	13.999952267481
scalar RSUExampleScenario.node[288].veinsmobility 	totalDistance 	3414.3883101143
scalar RSUExampleScenario.node[288].veinsmobility 	totalCO2Emission 	871.4668919172
scalar RSUExampleScenario.node[289].veinsmobility 	startTime 	867.1
scalar RSUExampleScenario.node[289].veinsmobility 	totalTime 	448.1
scalar RSUExampleScenario.node[289].veinsmobility 	stopTime 	1315.3
scalar RSUExampleScenario.node[289].veinsmobility 	minSpeed 	0.2596113477149
scalar RSUExampleScenario.node[289].veinsmobility 	maxSpeed 	13.999988548593
scalar RSUExampleScenario.node[289].veinsmobility 	totalDistance 	3409.8899807297
scalar RSUExampleScenario.node[289].veinsmobility 	totalCO2Emission 	871.28742435972
scalar RSUExampleScenario.node[290].veinsmobility 	startTime 	870.1
scalar RSUExampleScenario.node[290].veinsmobility 	totalTime 	448.8
scalar RSUExampleScenario.node[290].veinsmobility 	stopTime 	1319
scalar RSUExampleScenario.node[290].veinsmobility 	minSpeed 	0.24716694660834
scalar RSUExampleScenario.node[290].veinsmobility 	maxSpeed 	13.999996065677
scalar RSUExampleScenario.node[290].veinsmobility 	totalDistance 	3414.4436049341
scalar RSUExampleScenario.node[290].veinsmobility 	totalCO2Emission 	866.73027248861
scalar RSUExampleScenario.node[291].veinsmobility 	startTime 	873.1
scalar RSUExampleScenario.node[291].veinsmobility 	totalTime 	449.4
scalar RSUExampleScenario.node[291].veinsmobility 	stopTime 	1322.6
scalar RSUExampleScenario.node[291].veinsmobility 	minSpeed 	0.25911011331039
scalar RSUExampleScenario.node[291].veinsmobility 	maxSpeed 	13.999994548464
scalar RSUExampleScenario.node[291].veinsmobility 	totalDistance 	3409.6403223716
scalar RSUExampleScenario.node[291].veinsmobility 	totalCO2Emission 	874.15671322636
scalar RSUExampleScenario.node[292].veinsmobility 	startTime 	876.1
scalar RSUExampleScenario.node[292].veinsmobility 	totalTime 	450.1
scalar RSUExampleScenario.node[292].veinsmobility 	stopTime 	1326.3
scalar RSUExampleScenario.node[292].veinsmobility 	minSpeed 	0.25073223409243
scalar RSUExampleScenario.node[292].veinsmobility 	maxSpeed 	13.999992530255
scalar RSUExampleScenario.node[292].veinsmobility 	totalDistance 	3413.8072996625
scalar RSUExampleScenario.node[292].veinsmobility 	totalCO2Emission 	867.35393337249
scalar RSUExampleScenario.node[293].veinsmobility 	startTime 	879.1
scalar RSUExampleScenario.node[293].veinsmobility 	totalTime 	450.7
scalar RSUExampleScenario.node[293].veinsmobility 	stopTime 	1329.9
scalar RSUExampleScenario.node[293].veinsmobility 	minSpeed 	0.25541900781426
scalar RSUExampleScenario.node[293].veinsmobility 	maxSpeed 	13.999968131506
scalar RSUExampleScenario.node[293].veinsmobility 	totalDistance 	3409.7182698957
scalar RSUExampleScenario.node[293].veinsmobility 	totalCO2Emission 	875.15595003276
scalar RSUExampleScenario.node[294].veinsmobility 	startTime 	882.1
scalar RSUExampleScenario.node[294].veinsmobility 	totalTime 	451.5
scalar RSUExampleScenario.node[294].veinsmobility 	stopTime 	1333.7
scalar RSUExampleScenario.node[294].veinsmobility 	minSpeed 	0.24740169409034
scalar RSUExampleScenario.node[294].veinsmobility 	maxSpeed 	13.999841792427
scalar RSUExampleScenario.node[294].veinsmobility 	totalDistance 	3414.3971888536
scalar RSUExampleScenario.node[294].veinsmobility 	totalCO2Emission 	874.71005421806
scalar RSUExampleScenario.node[295].veinsmobility 	startTime 	885.1
scalar RSUExampleScenario.node[295].veinsmobility 	totalTime 	452.2
scalar RSUExampleScenario.node[295].veinsmobility 	stopTime 	1337.4
scalar RSUExampleScenario.node[295].veinsmobility 	minSpeed 	0.24775473846868
scalar RSUExampleScenario.node[295].veinsmobility 	maxSpeed 	13.999938909099
scalar RSUExampleScenario.node[295].veinsmobility 	totalDistance 	3409.8427194722
scalar RSUExampleScenario.node[295].veinsmobility 	totalCO2Emission 	875.87985331454
scalar RSUExampleScenario.node[296].veinsmobility 	startTime 	888.1
scalar RSUExampleScenario.node[296].veinsmobility 	totalTime 	452.9
scalar RSUExampleScenario.node[296].veinsmobility 	stopTime 	1341.1
scalar RSUExampleScenario.node[296].veinsmobility 	minSpeed 	0.2564196903673
scalar RSUExampleScenario.node[296].veinsmobility 	maxSpeed 	13.999957122193
scalar RSUExampleScenario.node[296].veinsmobility 	totalDistance 	3414.0813078621
scalar RSUExampleScenario.node[296].veinsmobility 	totalCO2Emission 	875.3124041102
scalar RSUExampleScenario.node[297].veinsmobility 	startTime 	89