version 2
run statisticRVV-170-20150327-11:24:54-11748
attr c 11
attr configname statisticRVV
attr datetime 20150327-11:24:54
attr experiment statisticRVV
attr inifile omnetpp.ini
attr iterationvars "$sc=\"erlangen-medium.launchd.xml\", $p=1/10, $c=11"
attr iterationvars2 "$sc=\"erlangen-medium.launchd.xml\", $p=1/10, $c=11, $repetition=0"
attr measurement "$sc=\"erlangen-medium.launchd.xml\", $p=1/10, $c=11"
attr network RSUExampleScenario
attr p 1/10
attr processid 11748
attr repetition 0
attr replication #0
attr resultdir results
attr runnumber 170
attr sc "\"erlangen-medium.launchd.xml\""
attr seedset 170

scalar . 	c 	11
scalar RSUExampleScenario.node[0].veinsmobility 	startTime 	0.1
scalar RSUExampleScenario.node[0].veinsmobility 	totalTime 	264.3
scalar RSUExampleScenario.node[0].veinsmobility 	stopTime 	264.5
scalar RSUExampleScenario.node[0].veinsmobility 	minSpeed 	0.25931560952542
scalar RSUExampleScenario.node[0].veinsmobility 	maxSpeed 	13.999959308722
scalar RSUExampleScenario.node[0].veinsmobility 	totalDistance 	3409.810634902
scalar RSUExampleScenario.node[0].veinsmobility 	totalCO2Emission 	695.65347953934
scalar RSUExampleScenario.node[1].veinsmobility 	startTime 	3.1
scalar RSUExampleScenario.node[1].veinsmobility 	totalTime 	265.3
scalar RSUExampleScenario.node[1].veinsmobility 	stopTime 	268.5
scalar RSUExampleScenario.node[1].veinsmobility 	minSpeed 	0.2538618158584
scalar RSUExampleScenario.node[1].veinsmobility 	maxSpeed 	13.999920302008
scalar RSUExampleScenario.node[1].veinsmobility 	totalDistance 	3409.6436736385
scalar RSUExampleScenario.node[1].veinsmobility 	totalCO2Emission 	686.05060125817
scalar RSUExampleScenario.node[2].veinsmobility 	startTime 	6.1
scalar RSUExampleScenario.node[2].veinsmobility 	totalTime 	265.9
scalar RSUExampleScenario.node[2].veinsmobility 	stopTime 	272.1
scalar RSUExampleScenario.node[2].veinsmobility 	minSpeed 	0.25272855631332
scalar RSUExampleScenario.node[2].veinsmobility 	maxSpeed 	13.999939623787
scalar RSUExampleScenario.node[2].veinsmobility 	totalDistance 	3409.3001413531
scalar RSUExampleScenario.node[2].veinsmobility 	totalCO2Emission 	692.42717527014
scalar RSUExampleScenario.node[3].veinsmobility 	startTime 	9.1
scalar RSUExampleScenario.node[3].veinsmobility 	totalTime 	266.3
scalar RSUExampleScenario.node[3].veinsmobility 	stopTime 	275.5
scalar RSUExampleScenario.node[3].veinsmobility 	minSpeed 	0.25497056328855
scalar RSUExampleScenario.node[3].veinsmobility 	maxSpeed 	13.999823740057
scalar RSUExampleScenario.node[3].veinsmobility 	totalDistance 	3409.1209892539
scalar RSUExampleScenario.node[3].veinsmobility 	totalCO2Emission 	690.68959309403
scalar RSUExampleScenario.node[4].veinsmobility 	startTime 	12.1
scalar RSUExampleScenario.node[4].veinsmobility 	totalTime 	266.5
scalar RSUExampleScenario.node[4].veinsmobility 	stopTime 	278.7
scalar RSUExampleScenario.node[4].veinsmobility 	minSpeed 	0.25495233261562
scalar RSUExampleScenario.node[4].veinsmobility 	maxSpeed 	13.999903728622
scalar RSUExampleScenario.node[4].veinsmobility 	totalDistance 	3413.4976024331
scalar RSUExampleScenario.node[4].veinsmobility 	totalCO2Emission 	691.22662872156
scalar RSUExampleScenario.node[5].veinsmobility 	startTime 	15.1
scalar RSUExampleScenario.node[5].veinsmobility 	totalTime 	266.6
scalar RSUExampleScenario.node[5].veinsmobility 	stopTime 	281.8
scalar RSUExampleScenario.node[5].veinsmobility 	minSpeed 	0.25006628616666
scalar RSUExampleScenario.node[5].veinsmobility 	maxSpeed 	13.999963978042
scalar RSUExampleScenario.node[5].veinsmobility 	totalDistance 	3409.4713680994
scalar RSUExampleScenario.node[5].veinsmobility 	totalCO2Emission 	694.86733047052
scalar RSUExampleScenario.node[6].veinsmobility 	startTime 	18.1
scalar RSUExampleScenario.node[6].veinsmobility 	totalTime 	266.8
scalar RSUExampleScenario.node[6].veinsmobility 	stopTime 	285
scalar RSUExampleScenario.node[6].veinsmobility 	minSpeed 	0.25415668601356
scalar RSUExampleScenario.node[6].veinsmobility 	maxSpeed 	13.999882737231
scalar RSUExampleScenario.node[6].veinsmobility 	totalDistance 	3409.8310621386
scalar RSUExampleScenario.node[6].veinsmobility 	totalCO2Emission 	689.23243267945
scalar RSUExampleScenario.node[7].veinsmobility 	startTime 	21.1
scalar RSUExampleScenario.node[7].veinsmobility 	totalTime 	266.9
scalar RSUExampleScenario.node[7].veinsmobility 	stopTime 	288.1
scalar RSUExampleScenario.node[7].veinsmobility 	minSpeed 	0.24985752009228
scalar RSUExampleScenario.node[7].veinsmobility 	maxSpeed 	13.999976870054
scalar RSUExampleScenario.node[7].veinsmobility 	totalDistance 	3409.5442711996
scalar RSUExampleScenario.node[7].veinsmobility 	totalCO2Emission 	688.38634845521
scalar RSUExampleScenario.node[8].veinsmobility 	startTime 	24.1
scalar RSUExampleScenario.node[8].veinsmobility 	totalTime 	267
scalar RSUExampleScenario.node[8].veinsmobility 	stopTime 	291.2
scalar RSUExampleScenario.node[8].veinsmobility 	minSpeed 	0.25847131913179
scalar RSUExampleScenario.node[8].veinsmobility 	maxSpeed 	13.999973121849
scalar RSUExampleScenario.node[8].veinsmobility 	totalDistance 	3413.682253828
scalar RSUExampleScenario.node[8].veinsmobility 	totalCO2Emission 	693.16747284578
scalar RSUExampleScenario.node[9].veinsmobility 	startTime 	27.1
scalar RSUExampleScenario.node[9].veinsmobility 	totalTime 	267
scalar RSUExampleScenario.node[9].veinsmobility 	stopTime 	294.2
scalar RSUExampleScenario.node[9].veinsmobility 	minSpeed 	0.25572678314499
scalar RSUExampleScenario.node[9].veinsmobility 	maxSpeed 	13.999998692665
scalar RSUExampleScenario.node[9].veinsmobility 	totalDistance 	3409.4983048795
scalar RSUExampleScenario.node[9].veinsmobility 	totalCO2Emission 	692.78773536947
scalar RSUExampleScenario.node[10].veinsmobility 	startTime 	30.1
scalar RSUExampleScenario.node[10].veinsmobility 	totalTime 	267.1
scalar RSUExampleScenario.node[10].veinsmobility 	stopTime 	297.3
scalar RSUExampleScenario.node[10].veinsmobility 	minSpeed 	0.25476826323336
scalar RSUExampleScenario.node[10].veinsmobility 	maxSpeed 	13.999742792512
scalar RSUExampleScenario.node[10].veinsmobility 	totalDistance 	3413.4395771543
scalar RSUExampleScenario.node[10].veinsmobility 	totalCO2Emission 	692.76724874595
scalar RSUExampleScenario.node[11].veinsmobility 	startTime 	33.1
scalar RSUExampleScenario.node[11].veinsmobility 	totalTime 	267.2
scalar RSUExampleScenario.node[11].veinsmobility 	stopTime 	300.4
scalar RSUExampleScenario.node[11].veinsmobility 	minSpeed 	0.25322124634148
scalar RSUExampleScenario.node[11].veinsmobility 	maxSpeed 	13.999868633319
scalar RSUExampleScenario.node[11].veinsmobility 	totalDistance 	3409.4135004242
scalar RSUExampleScenario.node[11].veinsmobility 	totalCO2Emission 	692.02317572965
scalar RSUExampleScenario.node[12].veinsmobility 	startTime 	36.1
scalar RSUExampleScenario.node[12].veinsmobility 	totalTime 	267.1
scalar RSUExampleScenario.node[12].veinsmobility 	stopTime 	303.3
scalar RSUExampleScenario.node[12].veinsmobility 	minSpeed 	0.2581411300716
scalar RSUExampleScenario.node[12].veinsmobility 	maxSpeed 	13.999907297944
scalar RSUExampleScenario.node[12].veinsmobility 	totalDistance 	3413.2162000521
scalar RSUExampleScenario.node[12].veinsmobility 	totalCO2Emission 	687.72941689741
scalar RSUExampleScenario.node[13].veinsmobility 	startTime 	39.1
scalar RSUExampleScenario.node[13].veinsmobility 	totalTime 	267.2
scalar RSUExampleScenario.node[13].veinsmobility 	stopTime 	306.4
scalar RSUExampleScenario.node[13].veinsmobility 	minSpeed 	0.24922033647005
scalar RSUExampleScenario.node[13].veinsmobility 	maxSpeed 	13.999984793849
scalar RSUExampleScenario.node[13].veinsmobility 	totalDistance 	3409.9012072921
scalar RSUExampleScenario.node[13].veinsmobility 	totalCO2Emission 	695.70973831786
scalar RSUExampleScenario.node[14].veinsmobility 	startTime 	42.1
scalar RSUExampleScenario.node[14].veinsmobility 	totalTime 	267.2
scalar RSUExampleScenario.node[14].veinsmobility 	stopTime 	309.4
scalar RSUExampleScenario.node[14].veinsmobility 	minSpeed 	0.25137068025582
scalar RSUExampleScenario.node[14].veinsmobility 	maxSpeed 	13.999943786119
scalar RSUExampleScenario.node[14].veinsmobility 	totalDistance 	3413.5036916731
scalar RSUExampleScenario.node[14].veinsmobility 	totalCO2Emission 	690.37488848747
scalar RSUExampleScenario.node[15].veinsmobility 	startTime 	45.1
scalar RSUExampleScenario.node[15].veinsmobility 	totalTime 	267.2
scalar RSUExampleScenario.node[15].veinsmobility 	stopTime 	312.4
scalar RSUExampleScenario.node[15].veinsmobility 	minSpeed 	0.25709022766701
scalar RSUExampleScenario.node[15].veinsmobility 	maxSpeed 	13.999967221469
scalar RSUExampleScenario.node[15].veinsmobility 	totalDistance 	3409.8212827783
scalar RSUExampleScenario.node[15].veinsmobility 	totalCO2Emission 	694.95222006126
scalar RSUExampleScenario.node[16].veinsmobility 	startTime 	48.1
scalar RSUExampleScenario.node[16].veinsmobility 	totalTime 	267.3
scalar RSUExampleScenario.node[16].veinsmobility 	stopTime 	315.5
scalar RSUExampleScenario.node[16].veinsmobility 	minSpeed 	0.2488166056592
scalar RSUExampleScenario.node[16].veinsmobility 	maxSpeed 	13.999972360942
scalar RSUExampleScenario.node[16].veinsmobility 	totalDistance 	3414.1567137175
scalar RSUExampleScenario.node[16].veinsmobility 	totalCO2Emission 	691.93445234765
scalar RSUExampleScenario.node[17].veinsmobility 	startTime 	51.1
scalar RSUExampleScenario.node[17].veinsmobility 	totalTime 	267.3
scalar RSUExampleScenario.node[17].veinsmobility 	stopTime 	318.5
scalar RSUExampleScenario.node[17].veinsmobility 	minSpeed 	0.25405008475995
scalar RSUExampleScenario.node[17].veinsmobility 	maxSpeed 	13.999923464498
scalar RSUExampleScenario.node[17].veinsmobility 	totalDistance 	3409.5857586522
scalar RSUExampleScenario.node[17].veinsmobility 	totalCO2Emission 	692.94757929655
scalar RSUExampleScenario.node[18].veinsmobility 	startTime 	54.1
scalar RSUExampleScenario.node[18].veinsmobility 	totalTime 	267.3
scalar RSUExampleScenario.node[18].veinsmobility 	stopTime 	321.5
scalar RSUExampleScenario.node[18].veinsmobility 	minSpeed 	0.25271698554419
scalar RSUExampleScenario.node[18].veinsmobility 	maxSpeed 	13.999974431363
scalar RSUExampleScenario.node[18].veinsmobility 	totalDistance 	3413.4129225109
scalar RSUExampleScenario.node[18].veinsmobility 	totalCO2Emission 	694.00748684163
scalar RSUExampleScenario.node[19].veinsmobility 	startTime 	57.1
scalar RSUExampleScenario.node[19].veinsmobility 	totalTime 	267.3
scalar RSUExampleScenario.node[19].veinsmobility 	stopTime 	324.5
scalar RSUExampleScenario.node[19].veinsmobility 	minSpeed 	0.2578514612182
scalar RSUExampleScenario.node[19].veinsmobility 	maxSpeed 	13.999990059903
scalar RSUExampleScenario.node[19].veinsmobility 	totalDistance 	3409.514210299
scalar RSUExampleScenario.node[19].veinsmobility 	totalCO2Emission 	692.88180778064
scalar RSUExampleScenario.node[20].veinsmobility 	startTime 	60.1
scalar RSUExampleScenario.node[20].veinsmobility 	totalTime 	267.3
scalar RSUExampleScenario.node[20].veinsmobility 	stopTime 	327.5
scalar RSUExampleScenario.node[20].veinsmobility 	minSpeed 	0.25169166993443
scalar RSUExampleScenario.node[20].veinsmobility 	maxSpeed 	13.999792660892
scalar RSUExampleScenario.node[20].veinsmobility 	totalDistance 	3413.4641332614
scalar RSUExampleScenario.node[20].veinsmobility 	totalCO2Emission 	689.03700569845
scalar RSUExampleScenario.node[21].veinsmobility 	startTime 	63.1
scalar RSUExampleScenario.node[21].veinsmobility 	totalTime 	267.4
scalar RSUExampleScenario.node[21].veinsmobility 	stopTime 	330.6
scalar RSUExampleScenario.node[21].veinsmobility 	minSpeed 	0.2495597879237
scalar RSUExampleScenario.node[21].veinsmobility 	maxSpeed 	13.999976540224
scalar RSUExampleScenario.node[21].veinsmobility 	totalDistance 	3409.9684259777
scalar RSUExampleScenario.node[21].veinsmobility 	totalCO2Emission 	690.60035335894
scalar RSUExampleScenario.node[22].veinsmobility 	startTime 	66.1
scalar RSUExampleScenario.node[22].veinsmobility 	totalTime 	267.4
scalar RSUExampleScenario.node[22].veinsmobility 	stopTime 	333.6
scalar RSUExampleScenario.node[22].veinsmobility 	minSpeed 	0.25788265290507
scalar RSUExampleScenario.node[22].veinsmobility 	maxSpeed 	13.999997929186
scalar RSUExampleScenario.node[22].veinsmobility 	totalDistance 	3413.4074564872
scalar RSUExampleScenario.node[22].veinsmobility 	totalCO2Emission 	686.08917869931
scalar RSUExampleScenario.node[23].veinsmobility 	startTime 	69.1
scalar RSUExampleScenario.node[23].veinsmobility 	totalTime 	267.4
scalar RSUExampleScenario.node[23].veinsmobility 	stopTime 	336.6
scalar RSUExampleScenario.node[23].veinsmobility 	minSpeed 	0.25247855248419
scalar RSUExampleScenario.node[23].veinsmobility 	maxSpeed 	13.999966939099
scalar RSUExampleScenario.node[23].veinsmobility 	totalDistance 	3409.3366518753
scalar RSUExampleScenario.node[23].veinsmobility 	totalCO2Emission 	693.75541226651
scalar RSUExampleScenario.node[24].veinsmobility 	startTime 	72.1
scalar RSUExampleScenario.node[24].veinsmobility 	totalTime 	267.4
scalar RSUExampleScenario.node[24].veinsmobility 	stopTime 	339.6
scalar RSUExampleScenario.node[24].veinsmobility 	minSpeed 	0.25243008928653
scalar RSUExampleScenario.node[24].veinsmobility 	maxSpeed 	13.999992545238
scalar RSUExampleScenario.node[24].veinsmobility 	totalDistance 	3413.4823672169
scalar RSUExampleScenario.node[24].veinsmobility 	totalCO2Emission 	690.45048507693
scalar RSUExampleScenario.node[25].veinsmobility 	startTime 	75.1
scalar RSUExampleScenario.node[25].veinsmobility 	totalTime 	267.4
scalar RSUExampleScenario.node[25].veinsmobility 	stopTime 	342.6
scalar RSUExampleScenario.node[25].veinsmobility 	minSpeed 	0.24912872519623
scalar RSUExampleScenario.node[25].veinsmobility 	maxSpeed 	13.999892479435
scalar RSUExampleScenario.node[25].veinsmobility 	totalDistance 	3409.6012344753
scalar RSUExampleScenario.node[25].veinsmobility 	totalCO2Emission 	692.77446786035
scalar RSUExampleScenario.node[26].veinsmobility 	startTime 	78.1
scalar RSUExampleScenario.node[26].veinsmobility 	totalTime 	267.4
scalar RSUExampleScenario.node[26].veinsmobility 	stopTime 	345.6
scalar RSUExampleScenario.node[26].veinsmobility 	minSpeed 	0.25788199793012
scalar RSUExampleScenario.node[26].veinsmobility 	maxSpeed 	13.999900080725
scalar RSUExampleScenario.node[26].veinsmobility 	totalDistance 	3413.6409682458
scalar RSUExampleScenario.node[26].veinsmobility 	totalCO2Emission 	691.17589318476
scalar RSUExampleScenario.node[27].veinsmobility 	startTime 	81.1
scalar RSUExampleScenario.node[27].veinsmobility 	totalTime 	267.4
scalar RSUExampleScenario.node[27].veinsmobility 	stopTime 	348.6
scalar RSUExampleScenario.node[27].veinsmobility 	minSpeed 	0.25080071869562
scalar RSUExampleScenario.node[27].veinsmobility 	maxSpeed 	13.999613166754
scalar RSUExampleScenario.node[27].veinsmobility 	totalDistance 	3409.3128136999
scalar RSUExampleScenario.node[27].veinsmobility 	totalCO2Emission 	688.19130374187
scalar RSUExampleScenario.node[28].veinsmobility 	startTime 	84.1
scalar RSUExampleScenario.node[28].veinsmobility 	totalTime 	267.5
scalar RSUExampleScenario.node[28].veinsmobility 	stopTime 	351.7
scalar RSUExampleScenario.node[28].veinsmobility 	minSpeed 	0.24979746170528
scalar RSUExampleScenario.node[28].veinsmobility 	maxSpeed 	13.99988823429
scalar RSUExampleScenario.node[28].veinsmobility 	totalDistance 	3413.4982265763
scalar RSUExampleScenario.node[28].veinsmobility 	totalCO2Emission 	692.25031709711
scalar RSUExampleScenario.node[29].veinsmobility 	startTime 	87.1
scalar RSUExampleScenario.node[29].veinsmobility 	totalTime 	267.6
scalar RSUExampleScenario.node[29].veinsmobility 	stopTime 	354.8
scalar RSUExampleScenario.node[29].veinsmobility 	minSpeed 	0.25261016483558
scalar RSUExampleScenario.node[29].veinsmobility 	maxSpeed 	13.999937670049
scalar RSUExampleScenario.node[29].veinsmobility 	totalDistance 	3409.7608744711
scalar RSUExampleScenario.node[29].veinsmobility 	totalCO2Emission 	689.01236559026
scalar RSUExampleScenario.node[30].veinsmobility 	startTime 	90.1
scalar RSUExampleScenario.node[30].veinsmobility 	totalTime 	267.7
scalar RSUExampleScenario.node[30].veinsmobility 	stopTime 	357.9
scalar RSUExampleScenario.node[30].veinsmobility 	minSpeed 	0.2493447397626
scalar RSUExampleScenario.node[30].veinsmobility 	maxSpeed 	13.999983234685
scalar RSUExampleScenario.node[30].veinsmobility 	totalDistance 	3413.6301019553
scalar RSUExampleScenario.node[30].veinsmobility 	totalCO2Emission 	692.80101632917
scalar RSUExampleScenario.node[31].veinsmobility 	startTime 	93.1
scalar RSUExampleScenario.node[31].veinsmobility 	totalTime 	267.8
scalar RSUExampleScenario.node[31].veinsmobility 	stopTime 	361
scalar RSUExampleScenario.node[31].veinsmobility 	minSpeed 	0.25934713070351
scalar RSUExampleScenario.node[31].veinsmobility 	maxSpeed 	13.99986181709
scalar RSUExampleScenario.node[31].veinsmobility 	totalDistance 	3409.350445567
scalar RSUExampleScenario.node[31].veinsmobility 	totalCO2Emission 	691.08324965749
scalar RSUExampleScenario.node[32].veinsmobility 	startTime 	96.1
scalar RSUExampleScenario.node[32].veinsmobility 	totalTime 	268
scalar RSUExampleScenario.node[32].veinsmobility 	stopTime 	364.2
scalar RSUExampleScenario.node[32].veinsmobility 	minSpeed 	0.25703753744857
scalar RSUExampleScenario.node[32].veinsmobility 	maxSpeed 	13.999856653493
scalar RSUExampleScenario.node[32].veinsmobility 	totalDistance 	3409.7124468708
scalar RSUExampleScenario.node[32].veinsmobility 	totalCO2Emission 	693.2810526061
scalar RSUExampleScenario.node[33].veinsmobility 	startTime 	99.1
scalar RSUExampleScenario.node[33].veinsmobility 	totalTime 	268.2
scalar RSUExampleScenario.node[33].veinsmobility 	stopTime 	367.4
scalar RSUExampleScenario.node[33].veinsmobility 	minSpeed 	0.24939467123896
scalar RSUExampleScenario.node[33].veinsmobility 	maxSpeed 	13.999834742348
scalar RSUExampleScenario.node[33].veinsmobility 	totalDistance 	3414.1297182658
scalar RSUExampleScenario.node[33].veinsmobility 	totalCO2Emission 	691.10316495905
scalar RSUExampleScenario.node[34].veinsmobility 	startTime 	102.1
scalar RSUExampleScenario.node[34].veinsmobility 	totalTime 	268.4
scalar RSUExampleScenario.node[34].veinsmobility 	stopTime 	370.6
scalar RSUExampleScenario.node[34].veinsmobility 	minSpeed 	0.25432406977029
scalar RSUExampleScenario.node[34].veinsmobility 	maxSpeed 	13.999511213349
scalar RSUExampleScenario.node[34].veinsmobility 	totalDistance 	3409.3693135001
scalar RSUExampleScenario.node[34].veinsmobility 	totalCO2Emission 	692.52186958799
scalar RSUExampleScenario.node[35].veinsmobility 	startTime 	105.1
scalar RSUExampleScenario.node[35].veinsmobility 	totalTime 	268.7
scalar RSUExampleScenario.node[35].veinsmobility 	stopTime 	373.9
scalar RSUExampleScenario.node[35].veinsmobility 	minSpeed 	0.2488788132607
scalar RSUExampleScenario.node[35].veinsmobility 	maxSpeed 	13.999936608763
scalar RSUExampleScenario.node[35].veinsmobility 	totalDistance 	3413.9633905344
scalar RSUExampleScenario.node[35].veinsmobility 	totalCO2Emission 	688.17707506626
scalar RSUExampleScenario.node[36].veinsmobility 	startTime 	108.1
scalar RSUExampleScenario.node[36].veinsmobility 	totalTime 	269
scalar RSUExampleScenario.node[36].veinsmobility 	stopTime 	377.2
scalar RSUExampleScenario.node[36].veinsmobility 	minSpeed 	0.25275409621093
scalar RSUExampleScenario.node[36].veinsmobility 	maxSpeed 	13.99989124547
scalar RSUExampleScenario.node[36].veinsmobility 	totalDistance 	3409.8139365404
scalar RSUExampleScenario.node[36].veinsmobility 	totalCO2Emission 	692.03904917915
scalar RSUExampleScenario.node[37].veinsmobility 	startTime 	111.1
scalar RSUExampleScenario.node[37].veinsmobility 	totalTime 	269.3
scalar RSUExampleScenario.node[37].veinsmobility 	stopTime 	380.5
scalar RSUExampleScenario.node[37].veinsmobility 	minSpeed 	0.25626756274281
scalar RSUExampleScenario.node[37].veinsmobility 	maxSpeed 	13.999961849961
scalar RSUExampleScenario.node[37].veinsmobility 	totalDistance 	3413.5096516839
scalar RSUExampleScenario.node[37].veinsmobility 	totalCO2Emission 	688.50898305251
scalar RSUExampleScenario.node[38].veinsmobility 	startTime 	114.1
scalar RSUExampleScenario.node[38].veinsmobility 	totalTime 	269.7
scalar RSUExampleScenario.node[38].veinsmobility 	stopTime 	383.9
scalar RSUExampleScenario.node[38].veinsmobility 	minSpeed 	0.25972113836044
scalar RSUExampleScenario.node[38].veinsmobility 	maxSpeed 	13.999989488686
scalar RSUExampleScenario.node[38].veinsmobility 	totalDistance 	3409.4465698044
scalar RSUExampleScenario.node[38].veinsmobility 	totalCO2Emission 	684.84002632295
scalar RSUExampleScenario.node[39].veinsmobility 	startTime 	117.1
scalar RSUExampleScenario.node[39].veinsmobility 	totalTime 	270.2
scalar RSUExampleScenario.node[39].veinsmobility 	stopTime 	387.4
scalar RSUExampleScenario.node[39].veinsmobility 	minSpeed 	0.25752336038859
scalar RSUExampleScenario.node[39].veinsmobility 	maxSpeed 	13.999928252499
scalar RSUExampleScenario.node[39].veinsmobility 	totalDistance 	3414.0950835649
scalar RSUExampleScenario.node[39].veinsmobility 	totalCO2Emission 	690.48296496836
scalar RSUExampleScenario.node[40].veinsmobility 	startTime 	120.1
scalar RSUExampleScenario.node[40].veinsmobility 	totalTime 	270.7
scalar RSUExampleScenario.node[40].veinsmobility 	stopTime 	390.9
scalar RSUExampleScenario.node[40].veinsmobility 	minSpeed 	0.25551272156881
scalar RSUExampleScenario.node[40].veinsmobility 	maxSpeed 	13.999754768978
scalar RSUExampleScenario.node[40].veinsmobility 	totalDistance 	3409.7809301744
scalar RSUExampleScenario.node[40].veinsmobility 	totalCO2Emission 	693.79484616983
scalar RSUExampleScenario.node[41].veinsmobility 	startTime 	123.1
scalar RSUExampleScenario.node[41].veinsmobility 	totalTime 	271.3
scalar RSUExampleScenario.node[41].veinsmobility 	stopTime 	394.5
scalar RSUExampleScenario.node[41].veinsmobility 	minSpeed 	0.2592042979137
scalar RSUExampleScenario.node[41].veinsmobility 	maxSpeed 	13.999985925145
scalar RSUExampleScenario.node[41].veinsmobility 	totalDistance 	3414.0028882539
scalar RSUExampleScenario.node[41].veinsmobility 	totalCO2Emission 	691.35826646154
scalar RSUExampleScenario.node[42].veinsmobility 	startTime 	126.1
scalar RSUExampleScenario.node[42].veinsmobility 	totalTime 	272
scalar RSUExampleScenario.node[42].veinsmobility 	stopTime 	398.2
scalar RSUExampleScenario.node[42].veinsmobility 	minSpeed 	0.24729142770777
scalar RSUExampleScenario.node[42].veinsmobility 	maxSpeed 	13.999968601477
scalar RSUExampleScenario.node[42].veinsmobility 	totalDistance 	3409.9149006786
scalar RSUExampleScenario.node[42].veinsmobility 	totalCO2Emission 	694.06303011038
scalar RSUExampleScenario.node[43].veinsmobility 	startTime 	129.1
scalar RSUExampleScenario.node[43].veinsmobility 	totalTime 	272.6
scalar RSUExampleScenario.node[43].veinsmobility 	stopTime 	401.8
scalar RSUExampleScenario.node[43].veinsmobility 	minSpeed 	0.24984008583357
scalar RSUExampleScenario.node[43].veinsmobility 	maxSpeed 	13.999991156058
scalar RSUExampleScenario.node[43].veinsmobility 	totalDistance 	3413.7145109544
scalar RSUExampleScenario.node[43].veinsmobility 	totalCO2Emission 	691.5499243657
scalar RSUExampleScenario.node[44].veinsmobility 	startTime 	132.1
scalar RSUExampleScenario.node[44].veinsmobility 	totalTime 	273.3
scalar RSUExampleScenario.node[44].veinsmobility 	stopTime 	405.5
scalar RSUExampleScenario.node[44].veinsmobility 	minSpeed 	0.25871746702562
scalar RSUExampleScenario.node[44].veinsmobility 	maxSpeed 	13.999951562902
scalar RSUExampleScenario.node[44].veinsmobility 	totalDistance 	3409.7114850276
scalar RSUExampleScenario.node[44].veinsmobility 	totalCO2Emission 	694.63962798164
scalar RSUExampleScenario.node[45].veinsmobility 	startTime 	135.1
scalar RSUExampleScenario.node[45].veinsmobility 	totalTime 	274
scalar RSUExampleScenario.node[45].veinsmobility 	stopTime 	409.2
scalar RSUExampleScenario.node[45].veinsmobility 	minSpeed 	0.25504841198865
scalar RSUExampleScenario.node[45].veinsmobility 	maxSpeed 	13.999899453633
scalar RSUExampleScenario.node[45].veinsmobility 	totalDistance 	3413.8499017438
scalar RSUExampleScenario.node[45].veinsmobility 	totalCO2Emission 	697.32914556251
scalar RSUExampleScenario.node[46].veinsmobility 	startTime 	138.1
scalar RSUExampleScenario.node[46].veinsmobility 	totalTime 	274.7
scalar RSUExampleScenario.node[46].veinsmobility 	stopTime 	412.9
scalar RSUExampleScenario.node[46].veinsmobility 	minSpeed 	0.25609297139221
scalar RSUExampleScenario.node[46].veinsmobility 	maxSpeed 	13.999968220796
scalar RSUExampleScenario.node[46].veinsmobility 	totalDistance 	3409.9875043753
scalar RSUExampleScenario.node[46].veinsmobility 	totalCO2Emission 	695.92422406289
scalar RSUExampleScenario.node[47].veinsmobility 	startTime 	141.1
scalar RSUExampleScenario.node[47].veinsmobility 	totalTime 	275.4
scalar RSUExampleScenario.node[47].veinsmobility 	stopTime 	416.6
scalar RSUExampleScenario.node[47].veinsmobility 	minSpeed 	0.25286982383369
scalar RSUExampleScenario.node[47].veinsmobility 	maxSpeed 	13.99996733343
scalar RSUExampleScenario.node[47].veinsmobility 	totalDistance 	3413.9733462038
scalar RSUExampleScenario.node[47].veinsmobility 	totalCO2Emission 	700.37842925756
scalar RSUExampleScenario.node[48].veinsmobility 	startTime 	144.1
scalar RSUExampleScenario.node[48].veinsmobility 	totalTime 	276.2
scalar RSUExampleScenario.node[48].veinsmobility 	stopTime 	420.4
scalar RSUExampleScenario.node[48].veinsmobility 	minSpeed 	0.25072675793921
scalar RSUExampleScenario.node[48].veinsmobility 	maxSpeed 	13.999993489387
scalar RSUExampleScenario.node[48].veinsmobility 	totalDistance 	3410.075214708
scalar RSUExampleScenario.node[48].veinsmobility 	totalCO2Emission 	696.85427094996
scalar RSUExampleScenario.node[49].veinsmobility 	startTime 	147.1
scalar RSUExampleScenario.node[49].veinsmobility 	totalTime 	277
scalar RSUExampleScenario.node[49].veinsmobility 	stopTime 	424.2
scalar RSUExampleScenario.node[49].veinsmobility 	minSpeed 	0.25124028360285
scalar RSUExampleScenario.node[49].veinsmobility 	maxSpeed 	13.999993650594
scalar RSUExampleScenario.node[49].veinsmobility 	totalDistance 	3413.9859132937
scalar RSUExampleScenario.node[49].veinsmobility 	totalCO2Emission 	695.38422763081
scalar RSUExampleScenario.node[50].veinsmobility 	startTime 	150.1
scalar RSUExampleScenario.node[50].veinsmobility 	totalTime 	277.7
scalar RSUExampleScenario.node[50].veinsmobility 	stopTime 	427.9
scalar RSUExampleScenario.node[50].veinsmobility 	minSpeed 	0.25326514774235
scalar RSUExampleScenario.node[50].veinsmobility 	maxSpeed 	13.999863868502
scalar RSUExampleScenario.node[50].veinsmobility 	totalDistance 	3409.7460537921
scalar RSUExampleScenario.node[50].veinsmobility 	totalCO2Emission 	696.31402443089
scalar RSUExampleScenario.node[51].veinsmobility 	startTime 	153.1
scalar RSUExampleScenario.node[51].veinsmobility 	totalTime 	278.4
scalar RSUExampleScenario.node[51].veinsmobility 	stopTime 	431.6
scalar RSUExampleScenario.node[51].veinsmobility 	minSpeed 	0.25929675303469
scalar RSUExampleScenario.node[51].veinsmobility 	maxSpeed 	13.999925835691
scalar RSUExampleScenario.node[51].veinsmobility 	totalDistance 	3414.2131465261
scalar RSUExampleScenario.node[51].veinsmobility 	totalCO2Emission 	700.65801050561
scalar RSUExampleScenario.node[52].veinsmobility 	startTime 	156.1
scalar RSUExampleScenario.node[52].veinsmobility 	totalTime 	279
scalar RSUExampleScenario.node[52].veinsmobility 	stopTime 	435.2
scalar RSUExampleScenario.node[52].veinsmobility 	minSpeed 	0.25999595281039
scalar RSUExampleScenario.node[52].veinsmobility 	maxSpeed 	13.999991671673
scalar RSUExampleScenario.node[52].veinsmobility 	totalDistance 	3409.6139138078
scalar RSUExampleScenario.node[52].veinsmobility 	totalCO2Emission 	700.8548711347
scalar RSUExampleScenario.node[53].veinsmobility 	startTime 	159.1
scalar RSUExampleScenario.node[53].veinsmobility 	totalTime 	279.7
scalar RSUExampleScenario.node[53].veinsmobility 	stopTime 	438.9
scalar RSUExampleScenario.node[53].veinsmobility 	minSpeed 	0.2494735343887
scalar RSUExampleScenario.node[53].veinsmobility 	maxSpeed 	13.999988721756
scalar RSUExampleScenario.node[53].veinsmobility 	totalDistance 	3414.0141864778
scalar RSUExampleScenario.node[53].veinsmobility 	totalCO2Emission 	700.46771653337
scalar RSUExampleScenario.node[54].veinsmobility 	startTime 	162.1
scalar RSUExampleScenario.node[54].veinsmobility 	totalTime 	280.4
scalar RSUExampleScenario.node[54].veinsmobility 	stopTime 	442.6
scalar RSUExampleScenario.node[54].veinsmobility 	minSpeed 	0.25329537277878
scalar RSUExampleScenario.node[54].veinsmobility 	maxSpeed 	13.999958488035
scalar RSUExampleScenario.node[54].veinsmobility 	totalDistance 	3410.1474291281
scalar RSUExampleScenario.node[54].veinsmobility 	totalCO2Emission 	705.03450566484
scalar RSUExampleScenario.node[55].veinsmobility 	startTime 	165.1
scalar RSUExampleScenario.node[55].veinsmobility 	totalTime 	281
scalar RSUExampleScenario.node[55].veinsmobility 	stopTime 	446.2
scalar RSUExampleScenario.node[55].veinsmobility 	minSpeed 	0.25629889520304
scalar RSUExampleScenario.node[55].veinsmobility 	maxSpeed 	13.999940047176
scalar RSUExampleScenario.node[55].veinsmobility 	totalDistance 	3413.7097545654
scalar RSUExampleScenario.node[55].veinsmobility 	totalCO2Emission 	705.49966421918
scalar RSUExampleScenario.node[56].veinsmobility 	startTime 	168.1
scalar RSUExampleScenario.node[56].veinsmobility 	totalTime 	281.6
scalar RSUExampleScenario.node[56].veinsmobility 	stopTime 	449.8
scalar RSUExampleScenario.node[56].veinsmobility 	minSpeed 	0.25138401778531
scalar RSUExampleScenario.node[56].veinsmobility 	maxSpeed 	13.999924007505
scalar RSUExampleScenario.node[56].veinsmobility 	totalDistance 	3409.4941680772
scalar RSUExampleScenario.node[56].veinsmobility 	totalCO2Emission 	700.40802839432
scalar RSUExampleScenario.node[57].veinsmobility 	startTime 	171.1
scalar RSUExampleScenario.node[57].veinsmobility 	totalTime 	282.3
scalar RSUExampleScenario.node[57].veinsmobility 	stopTime 	453.5
scalar RSUExampleScenario.node[57].veinsmobility 	minSpeed 	0.25429635256645
scalar RSUExampleScenario.node[57].veinsmobility 	maxSpeed 	13.999968127571
scalar RSUExampleScenario.node[57].veinsmobility 	totalDistance 	3413.8177279663
scalar RSUExampleScenario.node[57].veinsmobility 	totalCO2Emission 	707.22842981009
scalar RSUExampleScenario.node[58].veinsmobility 	startTime 	174.1
scalar RSUExampleScenario.node[58].veinsmobility 	totalTime 	283
scalar RSUExampleScenario.node[58].veinsmobility 	stopTime 	457.2
scalar RSUExampleScenario.node[58].veinsmobility 	minSpeed 	0.2509924037084
scalar RSUExampleScenario.node[58].veinsmobility 	maxSpeed 	13.999904738453
scalar RSUExampleScenario.node[58].veinsmobility 	totalDistance 	3409.8515639704
scalar RSUExampleScenario.node[58].veinsmobility 	totalCO2Emission 	701.94333149671
scalar RSUExampleScenario.node[59].veinsmobility 	startTime 	177.1
scalar RSUExampleScenario.node[59].veinsmobility 	totalTime 	283.7
scalar RSUExampleScenario.node[59].veinsmobility 	stopTime 	460.9
scalar RSUExampleScenario.node[59].veinsmobility 	minSpeed 	0.24738856562786
scalar RSUExampleScenario.node[59].veinsmobility 	maxSpeed 	13.999880795812
scalar RSUExampleScenario.node[59].veinsmobility 	totalDistance 	3413.630612318
scalar RSUExampleScenario.node[59].veinsmobility 	totalCO2Emission 	705.48962320047
scalar RSUExampleScenario.node[60].veinsmobility 	startTime 	180.1
scalar RSUExampleScenario.node[60].veinsmobility 	totalTime 	284.4
scalar RSUExampleScenario.node[60].veinsmobility 	stopTime 	464.6
scalar RSUExampleScenario.node[60].veinsmobility 	minSpeed 	0.24918439161405
scalar RSUExampleScenario.node[60].veinsmobility 	maxSpeed 	13.99986669647
scalar RSUExampleScenario.node[60].veinsmobility 	totalDistance 	3409.5800823357
scalar RSUExampleScenario.node[60].veinsmobility 	totalCO2Emission 	705.08473045586
scalar RSUExampleScenario.node[61].veinsmobility 	startTime 	183.1
scalar RSUExampleScenario.node[61].veinsmobility 	totalTime 	285
scalar RSUExampleScenario.node[61].veinsmobility 	stopTime 	468.2
scalar RSUExampleScenario.node[61].veinsmobility 	minSpeed 	0.25170867214189
scalar RSUExampleScenario.node[61].veinsmobility 	maxSpeed 	13.999960855688
scalar RSUExampleScenario.node[61].veinsmobility 	totalDistance 	3413.5210145289
scalar RSUExampleScenario.node[61].veinsmobility 	totalCO2Emission 	709.02935210733
scalar RSUExampleScenario.node[62].veinsmobility 	startTime 	186.1
scalar RSUExampleScenario.node[62].veinsmobility 	totalTime 	285.7
scalar RSUExampleScenario.node[62].veinsmobility 	stopTime 	471.9
scalar RSUExampleScenario.node[62].veinsmobility 	minSpeed 	0.25999483626685
scalar RSUExampleScenario.node[62].veinsmobility 	maxSpeed 	13.999978133379
scalar RSUExampleScenario.node[62].veinsmobility 	totalDistance 	3409.7416254547
scalar RSUExampleScenario.node[62].veinsmobility 	totalCO2Emission 	703.65284948797
scalar RSUExampleScenario.node[63].veinsmobility 	startTime 	189.1
scalar RSUExampleScenario.node[63].veinsmobility 	totalTime 	286.4
scalar RSUExampleScenario.node[63].veinsmobility 	stopTime 	475.6
scalar RSUExampleScenario.node[63].veinsmobility 	minSpeed 	0.24933561045746
scalar RSUExampleScenario.node[63].veinsmobility 	maxSpeed 	13.999983612793
scalar RSUExampleScenario.node[63].veinsmobility 	totalDistance 	3413.7176792507
scalar RSUExampleScenario.node[63].veinsmobility 	totalCO2Emission 	705.62221868569
scalar RSUExampleScenario.node[64].veinsmobility 	startTime 	192.1
scalar RSUExampleScenario.node[64].veinsmobility 	totalTime 	287
scalar RSUExampleScenario.node[64].veinsmobility 	stopTime 	479.2
scalar RSUExampleScenario.node[64].veinsmobility 	minSpeed 	0.25703093012329
scalar RSUExampleScenario.node[64].veinsmobility 	maxSpeed 	13.999888067846
scalar RSUExampleScenario.node[64].veinsmobility 	totalDistance 	3409.8438799986
scalar RSUExampleScenario.node[64].veinsmobility 	totalCO2Emission 	708.64767477714
scalar RSUExampleScenario.node[65].veinsmobility 	startTime 	195.1
scalar RSUExampleScenario.node[65].veinsmobility 	totalTime 	287.8
scalar RSUExampleScenario.node[65].veinsmobility 	stopTime 	483
scalar RSUExampleScenario.node[65].veinsmobility 	minSpeed 	0.25515312630893
scalar RSUExampleScenario.node[65].veinsmobility 	maxSpeed 	13.999985533629
scalar RSUExampleScenario.node[65].veinsmobility 	totalDistance 	3414.0798545843
scalar RSUExampleScenario.node[65].veinsmobility 	totalCO2Emission 	711.38496462949
scalar RSUExampleScenario.node[66].veinsmobility 	startTime 	198.1
scalar RSUExampleScenario.node[66].veinsmobility 	totalTime 	288.5
scalar RSUExampleScenario.node[66].veinsmobility 	stopTime 	486.7
scalar RSUExampleScenario.node[66].veinsmobility 	minSpeed 	0.25985294047394
scalar RSUExampleScenario.node[66].veinsmobility 	maxSpeed 	13.999864615879
scalar RSUExampleScenario.node[66].veinsmobility 	totalDistance 	3409.8833723728
scalar RSUExampleScenario.node[66].veinsmobility 	totalCO2Emission 	706.28152769785
scalar RSUExampleScenario.node[67].veinsmobility 	startTime 	201.1
scalar RSUExampleScenario.node[67].veinsmobility 	totalTime 	289.2
scalar RSUExampleScenario.node[67].veinsmobility 	stopTime 	490.4
scalar RSUExampleScenario.node[67].veinsmobility 	minSpeed 	0.25487625703216
scalar RSUExampleScenario.node[67].veinsmobility 	maxSpeed 	13.999906247493
scalar RSUExampleScenario.node[67].veinsmobility 	totalDistance 	3413.6473617917
scalar RSUExampleScenario.node[67].veinsmobility 	totalCO2Emission 	710.24397515003
scalar RSUExampleScenario.node[68].veinsmobility 	startTime 	204.1
scalar RSUExampleScenario.node[68].veinsmobility 	totalTime 	289.8
scalar RSUExampleScenario.node[68].veinsmobility 	stopTime 	494
scalar RSUExampleScenario.node[68].veinsmobility 	minSpeed 	0.25951264793659
scalar RSUExampleScenario.node[68].veinsmobility 	maxSpeed 	13.999979504338
scalar RSUExampleScenario.node[68].veinsmobility 	totalDistance 	3409.6021525005
scalar RSUExampleScenario.node[68].veinsmobility 	totalCO2Emission 	710.83013962996
scalar RSUExampleScenario.node[69].veinsmobility 	startTime 	207.1
scalar RSUExampleScenario.node[69].veinsmobility 	totalTime 	290.5
scalar RSUExampleScenario.node[69].veinsmobility 	stopTime 	497.7
scalar RSUExampleScenario.node[69].veinsmobility 	minSpeed 	0.25232431612257
scalar RSUExampleScenario.node[69].veinsmobility 	maxSpeed 	13.999994369247
scalar RSUExampleScenario.node[69].veinsmobility 	totalDistance 	3413.6451173887
scalar RSUExampleScenario.node[69].veinsmobility 	totalCO2Emission 	716.55718483563
scalar RSUExampleScenario.node[70].veinsmobility 	startTime 	210.1
scalar RSUExampleScenario.node[70].veinsmobility 	totalTime 	291.1
scalar RSUExampleScenario.node[70].veinsmobility 	stopTime 	501.3
scalar RSUExampleScenario.node[70].veinsmobility 	minSpeed 	0.24870824706461
scalar RSUExampleScenario.node[70].veinsmobility 	maxSpeed 	13.999749657684
scalar RSUExampleScenario.node[70].veinsmobility 	totalDistance 	3409.6439558603
scalar RSUExampleScenario.node[70].veinsmobility 	totalCO2Emission 	710.28296934571
scalar RSUExampleScenario.node[71].veinsmobility 	startTime 	213.1
scalar RSUExampleScenario.node[71].veinsmobility 	totalTime 	291.8
scalar RSUExampleScenario.node[71].veinsmobility 	stopTime 	505
scalar RSUExampleScenario.node[71].veinsmobility 	minSpeed 	0.24993664653716
scalar RSUExampleScenario.node[71].veinsmobility 	maxSpeed 	13.999813623377
scalar RSUExampleScenario.node[71].veinsmobility 	totalDistance 	3414.3121914104
scalar RSUExampleScenario.node[71].veinsmobility 	totalCO2Emission 	712.46577845043
scalar RSUExampleScenario.node[72].veinsmobility 	startTime 	216.1
scalar RSUExampleScenario.node[72].veinsmobility 	totalTime 	292.5
scalar RSUExampleScenario.node[72].veinsmobility 	stopTime 	508.7
scalar RSUExampleScenario.node[72].veinsmobility 	minSpeed 	0.25894295555563
scalar RSUExampleScenario.node[72].veinsmobility 	maxSpeed 	13.999593544141
scalar RSUExampleScenario.node[72].veinsmobility 	totalDistance 	3410.1512802239
scalar RSUExampleScenario.node[72].veinsmobility 	totalCO2Emission 	712.56895075219
scalar RSUExampleScenario.node[73].veinsmobility 	startTime 	219.1
scalar RSUExampleScenario.node[73].veinsmobility 	totalTime 	293.1
scalar RSUExampleScenario.node[73].veinsmobility 	stopTime 	512.3
scalar RSUExampleScenario.node[73].veinsmobility 	minSpeed 	0.25008304955368
scalar RSUExampleScenario.node[73].veinsmobility 	maxSpeed 	13.999961621619
scalar RSUExampleScenario.node[73].veinsmobility 	totalDistance 	3413.8445877088
scalar RSUExampleScenario.node[73].veinsmobility 	totalCO2Emission 	716.25172292757
scalar RSUExampleScenario.node[74].veinsmobility 	startTime 	222.1
scalar RSUExampleScenario.node[74].veinsmobility 	totalTime 	293.7
scalar RSUExampleScenario.node[74].veinsmobility 	stopTime 	515.9
scalar RSUExampleScenario.node[74].veinsmobility 	minSpeed 	0.25025125728059
scalar RSUExampleScenario.node[74].veinsmobility 	maxSpeed 	13.999988919497
scalar RSUExampleScenario.node[74].veinsmobility 	totalDistance 	3409.6700125266
scalar RSUExampleScenario.node[74].veinsmobility 	totalCO2Emission 	714.55981893537
scalar RSUExampleScenario.node[75].veinsmobility 	startTime 	225.1
scalar RSUExampleScenario.node[75].veinsmobility 	totalTime 	294.4
scalar RSUExampleScenario.node[75].veinsmobility 	stopTime 	519.6
scalar RSUExampleScenario.node[75].veinsmobility 	minSpeed 	0.25022823982593
scalar RSUExampleScenario.node[75].veinsmobility 	maxSpeed 	13.999999738787
scalar RSUExampleScenario.node[75].veinsmobility 	totalDistance 	3413.9570500505
scalar RSUExampleScenario.node[75].veinsmobility 	totalCO2Emission 	715.38702721051
scalar RSUExampleScenario.node[76].veinsmobility 	startTime 	228.1
scalar RSUExampleScenario.node[76].veinsmobility 	totalTime 	295.1
scalar RSUExampleScenario.node[76].veinsmobility 	stopTime 	523.3
scalar RSUExampleScenario.node[76].veinsmobility 	minSpeed 	0.2561669159825
scalar RSUExampleScenario.node[76].veinsmobility 	maxSpeed 	13.999984246998
scalar RSUExampleScenario.node[76].veinsmobility 	totalDistance 	3410.2351072888
scalar RSUExampleScenario.node[76].veinsmobility 	totalCO2Emission 	714.48980176444
scalar RSUExampleScenario.node[77].veinsmobility 	startTime 	231.1
scalar RSUExampleScenario.node[77].veinsmobility 	totalTime 	295.7
scalar RSUExampleScenario.node[77].veinsmobility 	stopTime 	526.9
scalar RSUExampleScenario.node[77].veinsmobility 	minSpeed 	0.25133645903133
scalar RSUExampleScenario.node[77].veinsmobility 	maxSpeed 	13.999972101576
scalar RSUExampleScenario.node[77].veinsmobility 	totalDistance 	3413.6609594361
scalar RSUExampleScenario.node[77].veinsmobility 	totalCO2Emission 	719.88673839451
scalar RSUExampleScenario.node[78].veinsmobility 	startTime 	234.1
scalar RSUExampleScenario.node[78].veinsmobility 	totalTime 	296.4
scalar RSUExampleScenario.node[78].veinsmobility 	stopTime 	530.6
scalar RSUExampleScenario.node[78].veinsmobility 	minSpeed 	0.25500643769884
scalar RSUExampleScenario.node[78].veinsmobility 	maxSpeed 	13.999740843193
scalar RSUExampleScenario.node[78].veinsmobility 	totalDistance 	3410.0521098968
scalar RSUExampleScenario.node[78].veinsmobility 	totalCO2Emission 	722.28178494877
scalar RSUExampleScenario.node[79].veinsmobility 	startTime 	237.1
scalar RSUExampleScenario.node[79].veinsmobility 	totalTime 	297.1
scalar RSUExampleScenario.node[79].veinsmobility 	stopTime 	534.3
scalar RSUExampleScenario.node[79].veinsmobility 	minSpeed 	0.25483252788638
scalar RSUExampleScenario.node[79].veinsmobility 	maxSpeed 	13.999958448354
scalar RSUExampleScenario.node[79].veinsmobility 	totalDistance 	3414.1880108287
scalar RSUExampleScenario.node[79].veinsmobility 	totalCO2Emission 	719.07125405159
scalar RSUExampleScenario.node[80].veinsmobility 	startTime 	240.1
scalar RSUExampleScenario.node[80].veinsmobility 	totalTime 	297.8
scalar RSUExampleScenario.node[80].veinsmobility 	stopTime 	538
scalar RSUExampleScenario.node[80].veinsmobility 	minSpeed 	0.24813956399984
scalar RSUExampleScenario.node[80].veinsmobility 	maxSpeed 	13.999764875004
scalar RSUExampleScenario.node[80].veinsmobility 	totalDistance 	3409.6898964312
scalar RSUExampleScenario.node[80].veinsmobility 	totalCO2Emission 	716.93906128833
scalar RSUExampleScenario.node[81].veinsmobility 	startTime 	243.1
scalar RSUExampleScenario.node[81].veinsmobility 	totalTime 	298.4
scalar RSUExampleScenario.node[81].veinsmobility 	stopTime 	541.6
scalar RSUExampleScenario.node[81].veinsmobility 	minSpeed 	0.2551023883149
scalar RSUExampleScenario.node[81].veinsmobility 	maxSpeed 	13.999982817683
scalar RSUExampleScenario.node[81].veinsmobility 	totalDistance 	3409.4240932166
scalar RSUExampleScenario.node[81].veinsmobility 	totalCO2Emission 	723.30215687825
scalar RSUExampleScenario.node[82].veinsmobility 	startTime 	246.1
scalar RSUExampleScenario.node[82].veinsmobility 	totalTime 	299.1
scalar RSUExampleScenario.node[82].veinsmobility 	stopTime 	545.3
scalar RSUExampleScenario.node[82].veinsmobility 	minSpeed 	0.25788883967791
scalar RSUExampleScenario.node[82].veinsmobility 	maxSpeed 	13.999957200466
scalar RSUExampleScenario.node[82].veinsmobility 	totalDistance 	3413.7645028179
scalar RSUExampleScenario.node[82].veinsmobility 	totalCO2Emission 	721.61952297414
scalar RSUExampleScenario.node[83].veinsmobility 	startTime 	249.1
scalar RSUExampleScenario.node[83].veinsmobility 	totalTime 	299.8
scalar RSUExampleScenario.node[83].veinsmobility 	stopTime 	549
scalar RSUExampleScenario.node[83].veinsmobility 	minSpeed 	0.25685850997991
scalar RSUExampleScenario.node[83].veinsmobility 	maxSpeed 	13.999880165753
scalar RSUExampleScenario.node[83].veinsmobility 	totalDistance 	3409.9369431153
scalar RSUExampleScenario.node[83].veinsmobility 	totalCO2Emission 	722.00696928234
scalar RSUExampleScenario.node[84].veinsmobility 	startTime 	252.1
scalar RSUExampleScenario.node[84].veinsmobility 	totalTime 	300.5
scalar RSUExampleScenario.node[84].veinsmobility 	stopTime 	552.7
scalar RSUExampleScenario.node[84].veinsmobility 	minSpeed 	0.25023746972973
scalar RSUExampleScenario.node[84].veinsmobility 	maxSpeed 	13.999975557816
scalar RSUExampleScenario.node[84].veinsmobility 	totalDistance 	3413.6908988433
scalar RSUExampleScenario.node[84].veinsmobility 	totalCO2Emission 	723.89447650024
scalar RSUExampleScenario.node[85].veinsmobility 	startTime 	255.1
scalar RSUExampleScenario.node[85].veinsmobility 	totalTime 	301.1
scalar RSUExampleScenario.node[85].veinsmobility 	stopTime 	556.3
scalar RSUExampleScenario.node[85].veinsmobility 	minSpeed 	0.25528581248666
scalar RSUExampleScenario.node[85].veinsmobility 	maxSpeed 	13.9999949513
scalar RSUExampleScenario.node[85].veinsmobility 	totalDistance 	3409.6592387954
scalar RSUExampleScenario.node[85].veinsmobility 	totalCO2Emission 	724.230334206
scalar RSUExampleScenario.node[86].veinsmobility 	startTime 	258.1
scalar RSUExampleScenario.node[86].veinsmobility 	totalTime 	301.8
scalar RSUExampleScenario.node[86].veinsmobility 	stopTime 	560
scalar RSUExampleScenario.node[86].veinsmobility 	minSpeed 	0.25651067006029
scalar RSUExampleScenario.node[86].veinsmobility 	maxSpeed 	13.999826599231
scalar RSUExampleScenario.node[86].veinsmobility 	totalDistance 	3414.0797862527
scalar RSUExampleScenario.node[86].veinsmobility 	totalCO2Emission 	724.00386494035
scalar RSUExampleScenario.node[87].veinsmobility 	startTime 	261.1
scalar RSUExampleScenario.node[87].veinsmobility 	totalTime 	302.5
scalar RSUExampleScenario.node[87].veinsmobility 	stopTime 	563.7
scalar RSUExampleScenario.node[87].veinsmobility 	minSpeed 	0.25510388121661
scalar RSUExampleScenario.node[87].veinsmobility 	maxSpeed 	13.999905304555
scalar RSUExampleScenario.node[87].veinsmobility 	totalDistance 	3409.6913723103
scalar RSUExampleScenario.node[87].veinsmobility 	totalCO2Emission 	722.69465525515
scalar RSUExampleScenario.node[88].veinsmobility 	startTime 	264.1
scalar RSUExampleScenario.node[88].veinsmobility 	totalTime 	303.2
scalar RSUExampleScenario.node[88].veinsmobility 	stopTime 	567.4
scalar RSUExampleScenario.node[88].veinsmobility 	minSpeed 	0.25969326081802
scalar RSUExampleScenario.node[88].veinsmobility 	maxSpeed 	13.999895975236
scalar RSUExampleScenario.node[88].veinsmobility 	totalDistance 	3413.8304394108
scalar RSUExampleScenario.node[88].veinsmobility 	totalCO2Emission 	725.08781468855
scalar RSUExampleScenario.node[89].veinsmobility 	startTime 	267.1
scalar RSUExampleScenario.node[89].veinsmobility 	totalTime 	303.9
scalar RSUExampleScenario.node[89].veinsmobility 	stopTime 	571.1
scalar RSUExampleScenario.node[89].veinsmobility 	minSpeed 	0.25241420105286
scalar RSUExampleScenario.node[89].veinsmobility 	maxSpeed 	13.999971142535
scalar RSUExampleScenario.node[89].veinsmobility 	totalDistance 	3409.7638191961
scalar RSUExampleScenario.node[89].veinsmobility 	totalCO2Emission 	725.68357084945
scalar RSUExampleScenario.node[90].veinsmobility 	startTime 	270.1
scalar RSUExampleScenario.node[90].veinsmobility 	totalTime 	304.6
scalar RSUExampleScenario.node[90].veinsmobility 	stopTime 	574.8
scalar RSUExampleScenario.node[90].veinsmobility 	minSpeed 	0.24843568553636
scalar RSUExampleScenario.node[90].veinsmobility 	maxSpeed 	13.999907297399
scalar RSUExampleScenario.node[90].veinsmobility 	totalDistance 	3409.7181525133
scalar RSUExampleScenario.node[90].veinsmobility 	totalCO2Emission 	724.59533950389
scalar RSUExampleScenario.node[91].veinsmobility 	startTime 	273.1
scalar RSUExampleScenario.node[91].veinsmobility 	totalTime 	305.4
scalar RSUExampleScenario.node[91].veinsmobility 	stopTime 	578.6
scalar RSUExampleScenario.node[91].veinsmobility 	minSpeed 	0.24840938159311
scalar RSUExampleScenario.node[91].veinsmobility 	maxSpeed 	13.999994818303
scalar RSUExampleScenario.node[91].veinsmobility 	totalDistance 	3413.9299959969
scalar RSUExampleScenario.node[91].veinsmobility 	totalCO2Emission 	728.03796442743
scalar RSUExampleScenario.node[92].veinsmobility 	startTime 	276.1
scalar RSUExampleScenario.node[92].veinsmobility 	totalTime 	306.1
scalar RSUExampleScenario.node[92].veinsmobility 	stopTime 	582.3
scalar RSUExampleScenario.node[92].veinsmobility 	minSpeed 	0.24798920040554
scalar RSUExampleScenario.node[92].veinsmobility 	maxSpeed 	13.99996918129
scalar RSUExampleScenario.node[92].veinsmobility 	totalDistance 	3409.6790220482
scalar RSUExampleScenario.node[92].veinsmobility 	totalCO2Emission 	725.1874447073
scalar RSUExampleScenario.node[93].veinsmobility 	startTime 	279.1
scalar RSUExampleScenario.node[93].veinsmobility 	totalTime 	306.8
scalar RSUExampleScenario.node[93].veinsmobility 	stopTime 	586
scalar RSUExampleScenario.node[93].veinsmobility 	minSpeed 	0.25463296993496
scalar RSUExampleScenario.node[93].veinsmobility 	maxSpeed 	13.999848746315
scalar RSUExampleScenario.node[93].veinsmobility 	totalDistance 	3413.6015213647
scalar RSUExampleScenario.node[93].veinsmobility 	totalCO2Emission 	729.24941979845
scalar RSUExampleScenario.node[94].veinsmobility 	startTime 	282.1
scalar RSUExampleScenario.node[94].veinsmobility 	totalTime 	307.5
scalar RSUExampleScenario.node[94].veinsmobility 	stopTime 	589.7
scalar RSUExampleScenario.node[94].veinsmobility 	minSpeed 	0.25163249024213
scalar RSUExampleScenario.node[94].veinsmobility 	maxSpeed 	13.999909826713
scalar RSUExampleScenario.node[94].veinsmobility 	totalDistance 	3409.7238059065
scalar RSUExampleScenario.node[94].veinsmobility 	totalCO2Emission 	726.81233025481
scalar RSUExampleScenario.node[95].veinsmobility 	startTime 	285.1
scalar RSUExampleScenario.node[95].veinsmobility 	totalTime 	308.2
scalar RSUExampleScenario.node[95].veinsmobility 	stopTime 	593.4
scalar RSUExampleScenario.node[95].veinsmobility 	minSpeed 	0.25553640382946
scalar RSUExampleScenario.node[95].veinsmobility 	maxSpeed 	13.999978243404
scalar RSUExampleScenario.node[95].veinsmobility 	totalDistance 	3414.2042593339
scalar RSUExampleScenario.node[95].veinsmobility 	totalCO2Emission 	728.55242798233
scalar RSUExampleScenario.node[96].veinsmobility 	startTime 	288.1
scalar RSUExampleScenario.node[96].veinsmobility 	totalTime 	309
scalar RSUExampleScenario.node[96].veinsmobility 	stopTime 	597.2
scalar RSUExampleScenario.node[96].veinsmobility 	minSpeed 	0.25977900166786
scalar RSUExampleScenario.node[96].veinsmobility 	maxSpeed 	13.999964633617
scalar RSUExampleScenario.node[96].veinsmobility 	totalDistance 	3410.2133761071
scalar RSUExampleScenario.node[96].veinsmobility 	totalCO2Emission 	729.7104344782
scalar RSUExampleScenario.node[97].veinsmobility 	startTime 	291.1
scalar RSUExampleScenario.node[97].veinsmobility 	totalTime 	309.7
scalar RSUExampleScenario.node[97].veinsmobility 	stopTime 	600.9
scalar RSUExampleScenario.node[97].veinsmobility 	minSpeed 	0.24779920360167
scalar RSUExampleScenario.node[97].veinsmobility 	maxSpeed 	13.999797445715
scalar RSUExampleScenario.node[97].veinsmobility 	totalDistance 	3413.9593370136
scalar RSUExampleScenario.node[97].veinsmobility 	totalCO2Emission 	731.70409113935
scalar RSUExampleScenario.node[98].veinsmobility 	startTime 	294.1
scalar RSUExampleScenario.node[98].veinsmobility 	totalTime 	310.3
scalar RSUExampleScenario.node[98].veinsmobility 	stopTime 	604.5
scalar RSUExampleScenario.node[98].veinsmobility 	minSpeed 	0.25950817818474
scalar RSUExampleScenario.node[98].veinsmobility 	maxSpeed 	13.999877537584
scalar RSUExampleScenario.node[98].veinsmobility 	totalDistance 	3409.8059843351
scalar RSUExampleScenario.node[98].veinsmobility 	totalCO2Emission 	732.00328887299
scalar RSUExampleScenario.node[99].veinsmobility 	startTime 	297.1
scalar RSUExampleScenario.node[99].veinsmobility 	totalTime 	311
scalar RSUExampleScenario.node[99].veinsmobility 	stopTime 	608.2
scalar RSUExampleScenario.node[99].veinsmobility 	minSpeed 	0.25425137322885
scalar RSUExampleScenario.node[99].veinsmobility 	maxSpeed 	13.999983809565
scalar RSUExampleScenario.node[99].veinsmobility 	totalDistance 	3414.262548456
scalar RSUExampleScenario.node[99].veinsmobility 	totalCO2Emission 	734.44158348612
scalar RSUExampleScenario.node[100].veinsmobility 	startTime 	300.1
scalar RSUExampleScenario.node[100].veinsmobility 	totalTime 	311.7
scalar RSUExampleScenario.node[100].veinsmobility 	stopTime 	611.9
scalar RSUExampleScenario.node[100].veinsmobility 	minSpeed 	0.2566405483014
scalar RSUExampleScenario.node[100].veinsmobility 	maxSpeed 	13.999974399309
scalar RSUExampleScenario.node[100].veinsmobility 	totalDistance 	3410.0192781159
scalar RSUExampleScenario.node[100].veinsmobility 	totalCO2Emission 	735.1386295883
scalar RSUExampleScenario.node[101].veinsmobility 	startTime 	303.1
scalar RSUExampleScenario.node[101].veinsmobility 	totalTime 	312.4
scalar RSUExampleScenario.node[101].veinsmobility 	stopTime 	615.6
scalar RSUExampleScenario.node[101].veinsmobility 	minSpeed 	0.25052451678249
scalar RSUExampleScenario.node[101].veinsmobility 	maxSpeed 	13.999783375794
scalar RSUExampleScenario.node[101].veinsmobility 	totalDistance 	3414.0990685366
scalar RSUExampleScenario.node[101].veinsmobility 	totalCO2Emission 	733.82022358915
scalar RSUExampleScenario.node[102].veinsmobility 	startTime 	306.1
scalar RSUExampleScenario.node[102].veinsmobility 	totalTime 	313.1
scalar RSUExampleScenario.node[102].veinsmobility 	stopTime 	619.3
scalar RSUExampleScenario.node[102].veinsmobility 	minSpeed 	0.24735132201202
scalar RSUExampleScenario.node[102].veinsmobility 	maxSpeed 	13.999939897591
scalar RSUExampleScenario.node[102].veinsmobility 	totalDistance 	3409.7657746923
scalar RSUExampleScenario.node[102].veinsmobility 	totalCO2Emission 	735.12885699171
scalar RSUExampleScenario.node[103].veinsmobility 	startTime 	309.1
scalar RSUExampleScenario.node[103].veinsmobility 	totalTime 	313.8
scalar RSUExampleScenario.node[103].veinsmobility 	stopTime 	623
scalar RSUExampleScenario.node[103].veinsmobility 	minSpeed 	0.25652768886369
scalar RSUExampleScenario.node[103].veinsmobility 	maxSpeed 	13.999985909285
scalar RSUExampleScenario.node[103].veinsmobility 	totalDistance 	3413.7773966388
scalar RSUExampleScenario.node[103].veinsmobility 	totalCO2Emission 	733.62287646244
scalar RSUExampleScenario.node[104].veinsmobility 	startTime 	312.1
scalar RSUExampleScenario.node[104].veinsmobility 	totalTime 	314.5
scalar RSUExampleScenario.node[104].veinsmobility 	stopTime 	626.7
scalar RSUExampleScenario.node[104].veinsmobility 	minSpeed 	0.25908331732778
scalar RSUExampleScenario.node[104].veinsmobility 	maxSpeed 	13.999937065204
scalar RSUExampleScenario.node[104].veinsmobility 	totalDistance 	3409.9658408785
scalar RSUExampleScenario.node[104].veinsmobility 	totalCO2Emission 	734.50246531898
scalar RSUExampleScenario.node[105].veinsmobility 	startTime 	315.1
scalar RSUExampleScenario.node[105].veinsmobility 	totalTime 	315.2
scalar RSUExampleScenario.node[105].veinsmobility 	stopTime 	630.4
scalar RSUExampleScenario.node[105].veinsmobility 	minSpeed 	0.24734524151916
scalar RSUExampleScenario.node[105].veinsmobility 	maxSpeed 	13.9999483798
scalar RSUExampleScenario.node[105].veinsmobility 	totalDistance 	3413.8576106275
scalar RSUExampleScenario.node[105].veinsmobility 	totalCO2Emission 	734.94306728023
scalar RSUExampleScenario.node[106].veinsmobility 	startTime 	318.1
scalar RSUExampleScenario.node[106].veinsmobility 	totalTime 	315.9
scalar RSUExampleScenario.node[106].veinsmobility 	stopTime 	634.1
scalar RSUExampleScenario.node[106].veinsmobility 	minSpeed 	0.25251786501962
scalar RSUExampleScenario.node[106].veinsmobility 	maxSpeed 	13.999972208028
scalar RSUExampleScenario.node[106].veinsmobility 	totalDistance 	3409.8369180904
scalar RSUExampleScenario.node[106].veinsmobility 	totalCO2Emission 	738.90187985786
scalar RSUExampleScenario.node[107].veinsmobility 	startTime 	321.1
scalar RSUExampleScenario.node[107].veinsmobility 	totalTime 	316.6
scalar RSUExampleScenario.node[107].veinsmobility 	stopTime 	637.8
scalar RSUExampleScenario.node[107].veinsmobility 	minSpeed 	0.25760130758374
scalar RSUExampleScenario.node[107].veinsmobility 	maxSpeed 	13.999927569956
scalar RSUExampleScenario.node[107].veinsmobility 	totalDistance 	3414.4208012916
scalar RSUExampleScenario.node[107].veinsmobility 	totalCO2Emission 	735.83510484517
scalar RSUExampleScenario.node[108].veinsmobility 	startTime 	324.1
scalar RSUExampleScenario.node[108].veinsmobility 	totalTime 	317.2
scalar RSUExampleScenario.node[108].veinsmobility 	stopTime 	641.4
scalar RSUExampleScenario.node[108].veinsmobility 	minSpeed 	0.25060755393864
scalar RSUExampleScenario.node[108].veinsmobility 	maxSpeed 	13.999951390042
scalar RSUExampleScenario.node[108].veinsmobility 	totalDistance 	3409.7548131253
scalar RSUExampleScenario.node[108].veinsmobility 	totalCO2Emission 	738.77175308639
scalar RSUExampleScenario.node[109].veinsmobility 	startTime 	327.1
scalar RSUExampleScenario.node[109].veinsmobility 	totalTime 	317.9
scalar RSUExampleScenario.node[109].veinsmobility 	stopTime 	645.1
scalar RSUExampleScenario.node[109].veinsmobility 	minSpeed 	0.25030264780996
scalar RSUExampleScenario.node[109].veinsmobility 	maxSpeed 	13.999903327329
scalar RSUExampleScenario.node[109].veinsmobility 	totalDistance 	3413.5771338188
scalar RSUExampleScenario.node[109].veinsmobility 	totalCO2Emission 	737.42153733748
scalar RSUExampleScenario.node[110].veinsmobility 	startTime 	330.1
scalar RSUExampleScenario.node[110].veinsmobility 	totalTime 	318.6
scalar RSUExampleScenario.node[110].veinsmobility 	stopTime 	648.8
scalar RSUExampleScenario.node[110].veinsmobility 	minSpeed 	0.2587459002065
scalar RSUExampleScenario.node[110].veinsmobility 	maxSpeed 	13.999926090306
scalar RSUExampleScenario.node[110].veinsmobility 	totalDistance 	3409.6041393719
scalar RSUExampleScenario.node[110].veinsmobility 	totalCO2Emission 	737.01921185454
scalar RSUExampleScenario.node[111].veinsmobility 	startTime 	333.1
scalar RSUExampleScenario.node[111].veinsmobility 	totalTime 	319.3
scalar RSUExampleScenario.node[111].veinsmobility 	stopTime 	652.5
scalar RSUExampleScenario.node[111].veinsmobility 	minSpeed 	0.24803251708951
scalar RSUExampleScenario.node[111].veinsmobility 	maxSpeed 	13.999876668046
scalar RSUExampleScenario.node[111].veinsmobility 	totalDistance 	3413.7584430647
scalar RSUExampleScenario.node[111].veinsmobility 	totalCO2Emission 	744.34386467623
scalar RSUExampleScenario.node[112].veinsmobility 	startTime 	336.1
scalar RSUExampleScenario.node[112].veinsmobility 	totalTime 	320
scalar RSUExampleScenario.node[112].veinsmobility 	stopTime 	656.2
scalar RSUExampleScenario.node[112].veinsmobility 	minSpeed 	0.25864551469823
scalar RSUExampleScenario.node[112].veinsmobility 	maxSpeed 	13.999987884725
scalar RSUExampleScenario.node[112].veinsmobility 	totalDistance 	3409.7958083079
scalar RSUExampleScenario.node[112].veinsmobility 	totalCO2Emission 	743.82270967426
scalar RSUExampleScenario.node[113].veinsmobility 	startTime 	339.1
scalar RSUExampleScenario.node[113].veinsmobility 	totalTime 	320.7
scalar RSUExampleScenario.node[113].veinsmobility 	stopTime 	659.9
scalar RSUExampleScenario.node[113].veinsmobility 	minSpeed 	0.25433887612028
scalar RSUExampleScenario.node[113].veinsmobility 	maxSpeed 	13.999921188981
scalar RSUExampleScenario.node[113].veinsmobility 	totalDistance 	3413.9858824543
scalar RSUExampleScenario.node[113].veinsmobility 	totalCO2Emission 	744.20624043813
scalar RSUExampleScenario.node[114].veinsmobility 	startTime 	342.1
scalar RSUExampleScenario.node[114].veinsmobility 	totalTime 	321.4
scalar RSUExampleScenario.node[114].veinsmobility 	stopTime 	663.6
scalar RSUExampleScenario.node[114].veinsmobility 	minSpeed 	0.25045887265704
scalar RSUExampleScenario.node[114].veinsmobility 	maxSpeed 	13.99984752361
scalar RSUExampleScenario.node[114].veinsmobility 	totalDistance 	3410.1360681309
scalar RSUExampleScenario.node[114].veinsmobility 	totalCO2Emission 	740.20437916814
scalar RSUExampleScenario.node[115].veinsmobility 	startTime 	345.1
scalar RSUExampleScenario.node[115].veinsmobility 	totalTime 	322.1
scalar RSUExampleScenario.node[115].veinsmobility 	stopTime 	667.3
scalar RSUExampleScenario.node[115].veinsmobility 	minSpeed 	0.25584600084787
scalar RSUExampleScenario.node[115].veinsmobility 	maxSpeed 	13.999978775787
scalar RSUExampleScenario.node[115].veinsmobility 	totalDistance 	3413.907131693
scalar RSUExampleScenario.node[115].veinsmobility 	totalCO2Emission 	742.74642023523
scalar RSUExampleScenario.node[116].veinsmobility 	startTime 	348.1
scalar RSUExampleScenario.node[116].veinsmobility 	totalTime 	322.9
scalar RSUExampleScenario.node[116].veinsmobility 	stopTime 	671.1
scalar RSUExampleScenario.node[116].veinsmobility 	minSpeed 	0.25057049097726
scalar RSUExampleScenario.node[116].veinsmobility 	maxSpeed 	13.999958587224
scalar RSUExampleScenario.node[116].veinsmobility 	totalDistance 	3410.2511088549
scalar RSUExampleScenario.node[116].veinsmobility 	totalCO2Emission 	747.78729538781
scalar RSUExampleScenario.node[117].veinsmobility 	startTime 	351.1
scalar RSUExampleScenario.node[117].veinsmobility 	totalTime 	323.6
scalar RSUExampleScenario.node[117].veinsmobility 	stopTime 	674.8
scalar RSUExampleScenario.node[117].veinsmobility 	minSpeed 	0.25969601577357
scalar RSUExampleScenario.node[117].veinsmobility 	maxSpeed 	13.999987100966
scalar RSUExampleScenario.node[117].veinsmobility 	totalDistance 	3414.0357419535
scalar RSUExampleScenario.node[117].veinsmobility 	totalCO2Emission 	749.40304783498
scalar RSUExampleScenario.node[118].veinsmobility 	startTime 	354.1
scalar RSUExampleScenario.node[118].veinsmobility 	totalTime 	324.2
scalar RSUExampleScenario.node[118].veinsmobility 	stopTime 	678.4
scalar RSUExampleScenario.node[118].veinsmobility 	minSpeed 	0.25018006692547
scalar RSUExampleScenario.node[118].veinsmobility 	maxSpeed 	13.999961894031
scalar RSUExampleScenario.node[118].veinsmobility 	totalDistance 	3409.5666440539
scalar RSUExampleScenario.node[118].veinsmobility 	totalCO2Emission 	747.5558275127
scalar RSUExampleScenario.node[119].veinsmobility 	startTime 	357.1
scalar RSUExampleScenario.node[119].veinsmobility 	totalTime 	324.9
scalar RSUExampleScenario.node[119].veinsmobility 	stopTime 	682.1
scalar RSUExampleScenario.node[119].veinsmobility 	minSpeed 	0.2481465638373
scalar RSUExampleScenario.node[119].veinsmobility 	maxSpeed 	13.999809952052
scalar RSUExampleScenario.node[119].veinsmobility 	totalDistance 	3414.1552564502
scalar RSUExampleScenario.node[119].veinsmobility 	totalCO2Emission 	747.86049821201
scalar RSUExampleScenario.node[120].veinsmobility 	startTime 	360.1
scalar RSUExampleScenario.node[120].veinsmobility 	totalTime 	325.5
scalar RSUExampleScenario.node[120].veinsmobility 	stopTime 	685.7
scalar RSUExampleScenario.node[120].veinsmobility 	minSpeed 	0.25521906101611
scalar RSUExampleScenario.node[120].veinsmobility 	maxSpeed 	13.999999199079
scalar RSUExampleScenario.node[120].veinsmobility 	totalDistance 	3409.4551881324
scalar RSUExampleScenario.node[120].veinsmobility 	totalCO2Emission 	747.5840216934
scalar RSUExampleScenario.node[121].veinsmobility 	startTime 	363.1
scalar RSUExampleScenario.node[121].veinsmobility 	totalTime 	326.1
scalar RSUExampleScenario.node[121].veinsmobility 	stopTime 	689.3
scalar RSUExampleScenario.node[121].veinsmobility 	minSpeed 	0.2523627949052
scalar RSUExampleScenario.node[121].veinsmobility 	maxSpeed 	13.999864120302
scalar RSUExampleScenario.node[121].veinsmobility 	totalDistance 	3413.7195934184
scalar RSUExampleScenario.node[121].veinsmobility 	totalCO2Emission 	749.52496991967
scalar RSUExampleScenario.node[122].veinsmobility 	startTime 	366.1
scalar RSUExampleScenario.node[122].veinsmobility 	totalTime 	326.8
scalar RSUExampleScenario.node[122].veinsmobility 	stopTime 	693
scalar RSUExampleScenario.node[122].veinsmobility 	minSpeed 	0.25678214912978
scalar RSUExampleScenario.node[122].veinsmobility 	maxSpeed 	13.999930084923
scalar RSUExampleScenario.node[122].veinsmobility 	totalDistance 	3409.5070009005
scalar RSUExampleScenario.node[122].veinsmobility 	totalCO2Emission 	745.80324211973
scalar RSUExampleScenario.node[123].veinsmobility 	startTime 	369.1
scalar RSUExampleScenario.node[123].veinsmobility 	totalTime 	327.4
scalar RSUExampleScenario.node[123].veinsmobility 	stopTime 	696.6
scalar RSUExampleScenario.node[123].veinsmobility 	minSpeed 	0.25015332725644
scalar RSUExampleScenario.node[123].veinsmobility 	maxSpeed 	13.99975162026
scalar RSUExampleScenario.node[123].veinsmobility 	totalDistance 	3413.8821615549
scalar RSUExampleScenario.node[123].veinsmobility 	totalCO2Emission 	747.14232155341
scalar RSUExampleScenario.node[124].veinsmobility 	startTime 	372.1
scalar RSUExampleScenario.node[124].veinsmobility 	totalTime 	328
scalar RSUExampleScenario.node[124].veinsmobility 	stopTime 	700.2
scalar RSUExampleScenario.node[124].veinsmobility 	minSpeed 	0.25839139330038
scalar RSUExampleScenario.node[124].veinsmobility 	maxSpeed 	13.999888038335
scalar RSUExampleScenario.node[124].veinsmobility 	totalDistance 	3409.3828675587
scalar RSUExampleScenario.node[124].veinsmobility 	totalCO2Emission 	747.70534210429
scalar RSUExampleScenario.node[125].veinsmobility 	startTime 	375.1
scalar RSUExampleScenario.node[125].veinsmobility 	totalTime 	328.6
scalar RSUExampleScenario.node[125].veinsmobility 	stopTime 	703.8
scalar RSUExampleScenario.node[125].veinsmobility 	minSpeed 	0.25389326635469
scalar RSUExampleScenario.node[125].veinsmobility 	maxSpeed 	13.999895893331
scalar RSUExampleScenario.node[125].veinsmobility 	totalDistance 	3413.8532781746
scalar RSUExampleScenario.node[125].veinsmobility 	totalCO2Emission 	752.29517225596
scalar RSUExampleScenario.node[126].veinsmobility 	startTime 	378.1
scalar RSUExampleScenario.node[126].veinsmobility 	totalTime 	329.3
scalar RSUExampleScenario.node[126].veinsmobility 	stopTime 	707.5
scalar RSUExampleScenario.node[126].veinsmobility 	minSpeed 	0.25745968167228
scalar RSUExampleScenario.node[126].veinsmobility 	maxSpeed 	13.999906940388
scalar RSUExampleScenario.node[126].veinsmobility 	totalDistance 	3409.8475428008
scalar RSUExampleScenario.node[126].veinsmobility 	totalCO2Emission 	756.07592304906
scalar RSUExampleScenario.node[127].veinsmobility 	startTime 	381.1
scalar RSUExampleScenario.node[127].veinsmobility 	totalTime 	330
scalar RSUExampleScenario.node[127].veinsmobility 	stopTime 	711.2
scalar RSUExampleScenario.node[127].veinsmobility 	minSpeed 	0.25901225327491
scalar RSUExampleScenario.node[127].veinsmobility 	maxSpeed 	13.9999907508
scalar RSUExampleScenario.node[127].veinsmobility 	totalDistance 	3414.1954853781
scalar RSUExampleScenario.node[127].veinsmobility 	totalCO2Emission 	755.70103182843
scalar RSUExampleScenario.node[128].veinsmobility 	startTime 	384.1
scalar RSUExampleScenario.node[128].veinsmobility 	totalTime 	330.7
scalar RSUExampleScenario.node[128].veinsmobility 	stopTime 	714.9
scalar RSUExampleScenario.node[128].veinsmobility 	minSpeed 	0.25334406685457
scalar RSUExampleScenario.node[128].veinsmobility 	maxSpeed 	13.999988427158
scalar RSUExampleScenario.node[128].veinsmobility 	totalDistance 	3409.6787901437
scalar RSUExampleScenario.node[128].veinsmobility 	totalCO2Emission 	751.36664973399
scalar RSUExampleScenario.node[129].veinsmobility 	startTime 	387.1
scalar RSUExampleScenario.node[129].veinsmobility 	totalTime 	331.4
scalar RSUExampleScenario.node[129].veinsmobility 	stopTime 	718.6
scalar RSUExampleScenario.node[129].veinsmobility 	minSpeed 	0.25429421852226
scalar RSUExampleScenario.node[129].veinsmobility 	maxSpeed 	13.999840600807
scalar RSUExampleScenario.node[129].veinsmobility 	totalDistance 	3414.3340579367
scalar RSUExampleScenario.node[129].veinsmobility 	totalCO2Emission 	751.64439814419
scalar RSUExampleScenario.node[130].veinsmobility 	startTime 	390.1
scalar RSUExampleScenario.node[130].veinsmobility 	totalTime 	332.1
scalar RSUExampleScenario.node[130].veinsmobility 	stopTime 	722.3
scalar RSUExampleScenario.node[130].veinsmobility 	minSpeed 	0.25852686237404
scalar RSUExampleScenario.node[130].veinsmobility 	maxSpeed 	13.999952690203
scalar RSUExampleScenario.node[130].veinsmobility 	totalDistance 	3409.8805365639
scalar RSUExampleScenario.node[130].veinsmobility 	totalCO2Emission 	752.825855444
scalar RSUExampleScenario.node[131].veinsmobility 	startTime 	393.1
scalar RSUExampleScenario.node[131].veinsmobility 	totalTime 	332.8
scalar RSUExampleScenario.node[131].veinsmobility 	stopTime 	726
scalar RSUExampleScenario.node[131].veinsmobility 	minSpeed 	0.24840698449896
scalar RSUExampleScenario.node[131].veinsmobility 	maxSpeed 	13.999959654382
scalar RSUExampleScenario.node[131].veinsmobility 	totalDistance 	3413.8546311302
scalar RSUExampleScenario.node[131].veinsmobility 	totalCO2Emission 	753.70814428215
scalar RSUExampleScenario.node[132].veinsmobility 	startTime 	396.1
scalar RSUExampleScenario.node[132].veinsmobility 	totalTime 	333.4
scalar RSUExampleScenario.node[132].veinsmobility 	stopTime 	729.6
scalar RSUExampleScenario.node[132].veinsmobility 	minSpeed 	0.25483158198465
scalar RSUExampleScenario.node[132].veinsmobility 	maxSpeed 	13.999976969152
scalar RSUExampleScenario.node[132].veinsmobility 	totalDistance 	3409.7888059821
scalar RSUExampleScenario.node[132].veinsmobility 	totalCO2Emission 	757.26786103372
scalar RSUExampleScenario.node[133].veinsmobility 	startTime 	399.1
scalar RSUExampleScenario.node[133].veinsmobility 	totalTime 	334.1
scalar RSUExampleScenario.node[133].veinsmobility 	stopTime 	733.3
scalar RSUExampleScenario.node[133].veinsmobility 	minSpeed 	0.24919986108714
scalar RSUExampleScenario.node[133].veinsmobility 	maxSpeed 	13.999989335591
scalar RSUExampleScenario.node[133].veinsmobility 	totalDistance 	3414.0446994131
scalar RSUExampleScenario.node[133].veinsmobility 	totalCO2Emission 	754.94296891251
scalar RSUExampleScenario.node[134].veinsmobility 	startTime 	402.1
scalar RSUExampleScenario.node[134].veinsmobility 	totalTime 	334.7
scalar RSUExampleScenario.node[134].veinsmobility 	stopTime 	736.9
scalar RSUExampleScenario.node[134].veinsmobility 	minSpeed 	0.24708873309731
scalar RSUExampleScenario.node[134].veinsmobility 	maxSpeed 	13.99962982937
scalar RSUExampleScenario.node[134].veinsmobility 	totalDistance 	3409.5550131895
scalar RSUExampleScenario.node[134].veinsmobility 	totalCO2Emission 	756.59639514846
scalar RSUExampleScenario.node[135].veinsmobility 	startTime 	405.1
scalar RSUExampleScenario.node[135].veinsmobility 	totalTime 	335.5
scalar RSUExampleScenario.node[135].veinsmobility 	stopTime 	740.7
scalar RSUExampleScenario.node[135].veinsmobility 	minSpeed 	0.25074528617063
scalar RSUExampleScenario.node[135].veinsmobility 	maxSpeed 	13.999945430367
scalar RSUExampleScenario.node[135].veinsmobility 	totalDistance 	3414.0714125261
scalar RSUExampleScenario.node[135].veinsmobility 	totalCO2Emission 	759.27707180264
scalar RSUExampleScenario.node[136].veinsmobility 	startTime 	408.1
scalar RSUExampleScenario.node[136].veinsmobility 	totalTime 	336.2
scalar RSUExampleScenario.node[136].veinsmobility 	stopTime 	744.4
scalar RSUExampleScenario.node[136].veinsmobility 	minSpeed 	0.24823635443137
scalar RSUExampleScenario.node[136].veinsmobility 	maxSpeed 	13.999858224704
scalar RSUExampleScenario.node[136].veinsmobility 	totalDistance 	3409.8970647718
scalar RSUExampleScenario.node[136].veinsmobility 	totalCO2Emission 	755.35735982167
scalar RSUExampleScenario.node[137].veinsmobility 	startTime 	411.1
scalar RSUExampleScenario.node[137].veinsmobility 	totalTime 	336.9
scalar RSUExampleScenario.node[137].veinsmobility 	stopTime 	748.1
scalar RSUExampleScenario.node[137].veinsmobility 	minSpeed 	0.25073509833962
scalar RSUExampleScenario.node[137].veinsmobility 	maxSpeed 	13.999969569962
scalar RSUExampleScenario.node[137].veinsmobility 	totalDistance 	3414.243024424
scalar RSUExampleScenario.node[137].veinsmobility 	totalCO2Emission 	755.97957828224
scalar RSUExampleScenario.node[138].veinsmobility 	startTime 	414.1
scalar RSUExampleScenario.node[138].veinsmobility 	totalTime 	337.7
scalar RSUExampleScenario.node[138].veinsmobility 	stopTime 	751.9
scalar RSUExampleScenario.node[138].veinsmobility 	minSpeed 	0.25226531432732
scalar RSUExampleScenario.node[138].veinsmobility 	maxSpeed 	13.999991674065
scalar RSUExampleScenario.node[138].veinsmobility 	totalDistance 	3410.2648312036
scalar RSUExampleScenario.node[138].veinsmobility 	totalCO2Emission 	758.56229469084
scalar RSUExampleScenario.node[139].veinsmobility 	startTime 	417.1
scalar RSUExampleScenario.node[139].veinsmobility 	totalTime 	338.4
scalar RSUExampleScenario.node[139].veinsmobility 	stopTime 	755.6
scalar RSUExampleScenario.node[139].veinsmobility 	minSpeed 	0.25870161416917
scalar RSUExampleScenario.node[139].veinsmobility 	maxSpeed 	13.999985873145
scalar RSUExampleScenario.node[139].veinsmobility 	totalDistance 	3413.7173815409
scalar RSUExampleScenario.node[139].veinsmobility 	totalCO2Emission 	761.38833519758
scalar RSUExampleScenario.node[140].veinsmobility 	startTime 	420.1
scalar RSUExampleScenario.node[140].veinsmobility 	totalTime 	339.1
scalar RSUExampleScenario.node[140].veinsmobility 	stopTime 	759.3
scalar RSUExampleScenario.node[140].veinsmobility 	minSpeed 	0.24886331585632
scalar RSUExampleScenario.node[140].veinsmobility 	maxSpeed 	13.999914511016
scalar RSUExampleScenario.node[140].veinsmobility 	totalDistance 	3409.96587273
scalar RSUExampleScenario.node[140].veinsmobility 	totalCO2Emission 	759.37892180504
scalar RSUExampleScenario.node[141].veinsmobility 	startTime 	423.1
scalar RSUExampleScenario.node[141].veinsmobility 	totalTime 	339.8
scalar RSUExampleScenario.node[141].veinsmobility 	stopTime 	763
scalar RSUExampleScenario.node[141].veinsmobility 	minSpeed 	0.24912063486082
scalar RSUExampleScenario.node[141].veinsmobility 	maxSpeed 	13.999991197011
scalar RSUExampleScenario.node[141].veinsmobility 	totalDistance 	3409.7555637831
scalar RSUExampleScenario.node[141].veinsmobility 	totalCO2Emission 	759.52855144595
scalar RSUExampleScenario.node[142].veinsmobility 	startTime 	426.1
scalar RSUExampleScenario.node[142].veinsmobility 	totalTime 	340.5
scalar RSUExampleScenario.node[142].veinsmobility 	stopTime 	766.7
scalar RSUExampleScenario.node[142].veinsmobility 	minSpeed 	0.25401449005003
scalar RSUExampleScenario.node[142].veinsmobility 	maxSpeed 	13.999968391478
scalar RSUExampleScenario.node[142].veinsmobility 	totalDistance 	3413.8899782671
scalar RSUExampleScenario.node[142].veinsmobility 	totalCO2Emission 	764.33443023603
scalar RSUExampleScenario.node[143].veinsmobility 	startTime 	429.1
scalar RSUExampleScenario.node[143].veinsmobility 	totalTime 	341.2
scalar RSUExampleScenario.node[143].veinsmobility 	stopTime 	770.4
scalar RSUExampleScenario.node[143].veinsmobility 	minSpeed 	0.25669924253761
scalar RSUExampleScenario.node[143].veinsmobility 	maxSpeed 	13.999988442776
scalar RSUExampleScenario.node[143].veinsmobility 	totalDistance 	3409.8076601384
scalar RSUExampleScenario.node[143].veinsmobility 	totalCO2Emission 	761.24497893493
scalar RSUExampleScenario.node[144].veinsmobility 	startTime 	432.1
scalar RSUExampleScenario.node[144].veinsmobility 	totalTime 	341.9
scalar RSUExampleScenario.node[144].veinsmobility 	stopTime 	774.1
scalar RSUExampleScenario.node[144].veinsmobility 	minSpeed 	0.24729564779112
scalar RSUExampleScenario.node[144].veinsmobility 	maxSpeed 	13.999839708023
scalar RSUExampleScenario.node[144].veinsmobility 	totalDistance 	3414.165683121
scalar RSUExampleScenario.node[144].veinsmobility 	totalCO2Emission 	763.79002866049
scalar RSUExampleScenario.node[145].veinsmobility 	startTime 	435.1
scalar RSUExampleScenario.node[145].veinsmobility 	totalTime 	342.6
scalar RSUExampleScenario.node[145].veinsmobility 	stopTime 	777.8
scalar RSUExampleScenario.node[145].veinsmobility 	minSpeed 	0.2578928217066
scalar RSUExampleScenario.node[145].veinsmobility 	maxSpeed 	13.999997896587
scalar RSUExampleScenario.node[145].veinsmobility 	totalDistance 	3409.7532145582
scalar RSUExampleScenario.node[145].veinsmobility 	totalCO2Emission 	763.41060962759
scalar RSUExampleScenario.node[146].veinsmobility 	startTime 	438.1
scalar RSUExampleScenario.node[146].veinsmobility 	totalTime 	343.2
scalar RSUExampleScenario.node[146].veinsmobility 	stopTime 	781.4
scalar RSUExampleScenario.node[146].veinsmobility 	minSpeed 	0.24868522357754
scalar RSUExampleScenario.node[146].veinsmobility 	maxSpeed 	13.999980475637
scalar RSUExampleScenario.node[146].veinsmobility 	totalDistance 	3413.7378948827
scalar RSUExampleScenario.node[146].veinsmobility 	totalCO2Emission 	764.28797428368
scalar RSUExampleScenario.node[147].veinsmobility 	startTime 	441.1
scalar RSUExampleScenario.node[147].veinsmobility 	totalTime 	343.8
scalar RSUExampleScenario.node[147].veinsmobility 	stopTime 	785
scalar RSUExampleScenario.node[147].veinsmobility 	minSpeed 	0.25386645889445
scalar RSUExampleScenario.node[147].veinsmobility 	maxSpeed 	13.999835437422
scalar RSUExampleScenario.node[147].veinsmobility 	totalDistance 	3409.6828092571
scalar RSUExampleScenario.node[147].veinsmobility 	totalCO2Emission 	766.05516175279
scalar RSUExampleScenario.node[148].veinsmobility 	startTime 	444.1
scalar RSUExampleScenario.node[148].veinsmobility 	totalTime 	344.6
scalar RSUExampleScenario.node[148].veinsmobility 	stopTime 	788.8
scalar RSUExampleScenario.node[148].veinsmobility 	minSpeed 	0.2577021747434
scalar RSUExampleScenario.node[148].veinsmobility 	maxSpeed 	13.999962196106
scalar RSUExampleScenario.node[148].veinsmobility 	totalDistance 	3414.2033129556
scalar RSUExampleScenario.node[148].veinsmobility 	totalCO2Emission 	762.74594094268
scalar RSUExampleScenario.node[149].veinsmobility 	startTime 	447.1
scalar RSUExampleScenario.node[149].veinsmobility 	totalTime 	345.3
scalar RSUExampleScenario.node[149].veinsmobility 	stopTime 	792.5
scalar RSUExampleScenario.node[149].veinsmobility 	minSpeed 	0.2599052104759
scalar RSUExampleScenario.node[149].veinsmobility 	maxSpeed 	13.99990727827
scalar RSUExampleScenario.node[149].veinsmobility 	totalDistance 	3410.030619299
scalar RSUExampleScenario.node[149].veinsmobility 	totalCO2Emission 	768.20030488072
scalar RSUExampleScenario.node[150].veinsmobility 	startTime 	450.1
scalar RSUExampleScenario.node[150].veinsmobility 	totalTime 	346
scalar RSUExampleScenario.node[150].veinsmobility 	stopTime 	796.2
scalar RSUExampleScenario.node[150].veinsmobility 	minSpeed 	0.24944790787017
scalar RSUExampleScenario.node[150].veinsmobility 	maxSpeed 	13.999963653085
scalar RSUExampleScenario.node[150].veinsmobility 	totalDistance 	3414.2930305416
scalar RSUExampleScenario.node[150].veinsmobility 	totalCO2Emission 	770.12158820976
scalar RSUExampleScenario.node[151].veinsmobility 	startTime 	453.1
scalar RSUExampleScenario.node[151].veinsmobility 	totalTime 	346.6
scalar RSUExampleScenario.node[151].veinsmobility 	stopTime 	799.8
scalar RSUExampleScenario.node[151].veinsmobility 	minSpeed 	0.24943763923878
scalar RSUExampleScenario.node[151].veinsmobility 	maxSpeed 	13.99999978316
scalar RSUExampleScenario.node[151].veinsmobility 	totalDistance 	3409.6422273052
scalar RSUExampleScenario.node[151].veinsmobility 	totalCO2Emission 	768.41998930046
scalar RSUExampleScenario.node[152].veinsmobility 	startTime 	456.1
scalar RSUExampleScenario.node[152].veinsmobility 	totalTime 	347.3
scalar RSUExampleScenario.node[152].veinsmobility 	stopTime 	803.5
scalar RSUExampleScenario.node[152].veinsmobility 	minSpeed 	0.24918478366011
scalar RSUExampleScenario.node[152].veinsmobility 	maxSpeed 	13.999980199442
scalar RSUExampleScenario.node[152].veinsmobility 	totalDistance 	3414.1979472054
[...]
scalar RSUExampleScenario.node[628].veinsmobility 	totalCO2Emission 	325.03379100246
scalar RSUExampleScenario.node[629].veinsmobility 	startTime 	1887.1
scalar RSUExampleScenario.node[629].veinsmobility 	totalTime 	112.8
scalar RSUExampleScenario.node[629].veinsmobility 	stopTime 	2000
scalar RSUExampleScenario.node[629].veinsmobility 	minSpeed 	0.25735094996728
scalar RSUExampleScenario.node[629].veinsmobility 	maxSpeed 	13.999803351241
scalar RSUExampleScenario.node[629].veinsmobility 	totalDistance 	1361.7932334937
scalar RSUExampleScenario.node[629].veinsmobility 	totalCO2Emission 	317.29589352481
scalar RSUExampleScenario.node[630].veinsmobility 	startTime 	1890.1
scalar RSUExampleScenario.node[630].veinsmobility 	totalTime 	109.8
scalar RSUExampleScenario.node[630].veinsmobility 	stopTime 	2000
scalar RSUExampleScenario.node[630].veinsmobility 	minSpeed 	0.25454682907555
scalar RSUExampleScenario.node[630].veinsmobility 	maxSpeed 	13.999900226465
scalar RSUExampleScenario.node[630].veinsmobility 	totalDistance 	1319.9225917858
scalar RSUExampleScenario.node[630].veinsmobility 	totalCO2Emission 	308.9178895536
scalar RSUExampleScenario.node[631].veinsmobility 	startTime 	1893.1
scalar RSUExampleScenario.node[631].veinsmobility 	totalTime 	106.8
scalar RSUExampleScenario.node[631].veinsmobility 	stopTime 	2000
scalar RSUExampleScenario.node[631].veinsmobility 	minSpeed 	0.25373569075647
scalar RSUExampleScenario.node[631].veinsmobility 	maxSpeed 	13.999602710498
scalar RSUExampleScenario.node[631].veinsmobility 	totalDistance 	1278.6511099605
scalar RSUExampleScenario.node[631].veinsmobility 	totalCO2Emission 	303.89653183428
scalar RSUExampleScenario.node[632].veinsmobility 	startTime 	1896.1
scalar RSUExampleScenario.node[632].veinsmobility 	totalTime 	103.8
scalar RSUExampleScenario.node[632].veinsmobility 	stopTime 	2000
scalar RSUExampleScenario.node[632].veinsmobility 	minSpeed 	0.24760603006394
scalar RSUExampleScenario.node[632].veinsmobility 	maxSpeed 	13.999598870792
scalar RSUExampleScenario.node[632].veinsmobility 	totalDistance 	1236.1397922654
scalar RSUExampleScenario.node[632].veinsmobility 	totalCO2Emission 	296.95450501565
scalar RSUExampleScenario.node[633].veinsmobility 	startTime 	1899.1
scalar RSUExampleScenario.node[633].veinsmobility 	totalTime 	100.8
scalar RSUExampleScenario.node[633].veinsmobility 	stopTime 	2000
scalar RSUExampleScenario.node[633].veinsmobility 	minSpeed 	0.25779669719492
scalar RSUExampleScenario.node[633].veinsmobility 	maxSpeed 	13.999925254304
scalar RSUExampleScenario.node[633].veinsmobility 	totalDistance 	1193.6992727702
scalar RSUExampleScenario.node[633].veinsmobility 	totalCO2Emission 	290.10922948116
scalar RSUExampleScenario.node[634].veinsmobility 	startTime 	1902.1
scalar RSUExampleScenario.node[634].veinsmobility 	totalTime 	97.8
scalar RSUExampleScenario.node[634].veinsmobility 	stopTime 	2000
scalar RSUExampleScenario.node[634].veinsmobility 	minSpeed 	0.24866035543242
scalar RSUExampleScenario.node[634].veinsmobility 	maxSpeed 	13.999920293896
scalar RSUExampleScenario.node[634].veinsmobility 	totalDistance 	1153.4513134714
scalar RSUExampleScenario.node[634].veinsmobility 	totalCO2Emission 	282.41841652733
scalar RSUExampleScenario.node[635].veinsmobility 	startTime 	1905.1
scalar RSUExampleScenario.node[635].veinsmobility 	totalTime 	94.8
scalar RSUExampleScenario.node[635].veinsmobility 	stopTime 	2000
scalar RSUExampleScenario.node[635].veinsmobility 	minSpeed 	0.24970605649287
scalar RSUExampleScenario.node[635].veinsmobility 	maxSpeed 	13.999962977625
scalar RSUExampleScenario.node[635].veinsmobility 	totalDistance 	1112.129578724
scalar RSUExampleScenario.node[635].veinsmobility 	totalCO2Emission 	275.98551618682
scalar RSUExampleScenario.node[636].veinsmobility 	startTime 	1908.1
scalar RSUExampleScenario.node[636].veinsmobility 	totalTime 	91.8
scalar RSUExampleScenario.node[636].veinsmobility 	stopTime 	2000
scalar RSUExampleScenario.node[636].veinsmobility 	minSpeed 	0.25648477160209
scalar RSUExampleScenario.node[636].veinsmobility 	maxSpeed 	13.999923731461
scalar RSUExampleScenario.node[636].veinsmobility 	totalDistance 	1070.0289944825
scalar RSUExampleScenario.node[636].veinsmobility 	totalCO2Emission 	267.25310331525
scalar RSUExampleScenario.node[637].veinsmobility 	startTime 	1911.1
scalar RSUExampleScenario.node[637].veinsmobility 	totalTime 	88.8
scalar RSUExampleScenario.node[637].veinsmobility 	stopTime 	2000
scalar RSUExampleScenario.node[637].veinsmobility 	minSpeed 	0.25690312506352
scalar RSUExampleScenario.node[637].veinsmobility 	maxSpeed 	13.999922653739
scalar RSUExampleScenario.node[637].veinsmobility 	totalDistance 	1028.1132649829
scalar RSUExampleScenario.node[637].veinsmobility 	totalCO2Emission 	261.47169426066
scalar RSUExampleScenario.node[638].veinsmobility 	startTime 	1914.1
scalar RSUExampleScenario.node[638].veinsmobility 	totalTime 	85.8
scalar RSUExampleScenario.node[638].veinsmobility 	stopTime 	2000
scalar RSUExampleScenario.node[638].veinsmobility 	minSpeed 	0.25179462790349
scalar RSUExampleScenario.node[638].veinsmobility 	maxSpeed 	13.999906006833
scalar RSUExampleScenario.node[638].veinsmobility 	totalDistance 	985.88251946793
scalar RSUExampleScenario.node[638].veinsmobility 	totalCO2Emission 	253.53145896433
scalar RSUExampleScenario.node[639].veinsmobility 	startTime 	1917.1
scalar RSUExampleScenario.node[639].veinsmobility 	totalTime 	82.8
scalar RSUExampleScenario.node[639].veinsmobility 	stopTime 	2000
scalar RSUExampleScenario.node[639].veinsmobility 	minSpeed 	0.25956595327612
scalar RSUExampleScenario.node[639].veinsmobility 	maxSpeed 	13.999800755731
scalar RSUExampleScenario.node[639].veinsmobility 	totalDistance 	953.44319537759
scalar RSUExampleScenario.node[639].veinsmobility 	totalCO2Emission 	232.1001359852
scalar RSUExampleScenario.node[640].veinsmobility 	startTime 	1920.1
scalar RSUExampleScenario.node[640].veinsmobility 	totalTime 	79.8
scalar RSUExampleScenario.node[640].veinsmobility 	stopTime 	2000
scalar RSUExampleScenario.node[640].veinsmobility 	minSpeed 	0.24876452781656
scalar RSUExampleScenario.node[640].veinsmobility 	maxSpeed 	13.999619544945
scalar RSUExampleScenario.node[640].veinsmobility 	totalDistance 	936.86398363764
scalar RSUExampleScenario.node[640].veinsmobility 	totalCO2Emission 	221.86170908256
scalar RSUExampleScenario.node[641].veinsmobility 	startTime 	1923.1
scalar RSUExampleScenario.node[641].veinsmobility 	totalTime 	76.8
scalar RSUExampleScenario.node[641].veinsmobility 	stopTime 	2000
scalar RSUExampleScenario.node[641].veinsmobility 	minSpeed 	0.25128620520094
scalar RSUExampleScenario.node[641].veinsmobility 	maxSpeed 	13.999863104902
scalar RSUExampleScenario.node[641].veinsmobility 	totalDistance 	913.02944011804
scalar RSUExampleScenario.node[641].veinsmobility 	totalCO2Emission 	217.43639618553
scalar RSUExampleScenario.node[642].veinsmobility 	startTime 	1926.1
scalar RSUExampleScenario.node[642].veinsmobility 	totalTime 	73.8
scalar RSUExampleScenario.node[642].veinsmobility 	stopTime 	2000
scalar RSUExampleScenario.node[642].veinsmobility 	minSpeed 	0.25521897205245
scalar RSUExampleScenario.node[642].veinsmobility 	maxSpeed 	13.999494424607
scalar RSUExampleScenario.node[642].veinsmobility 	totalDistance 	874.06130900883
scalar RSUExampleScenario.node[642].veinsmobility 	totalCO2Emission 	215.10914918226
scalar RSUExampleScenario.node[643].veinsmobility 	startTime 	1929.1
scalar RSUExampleScenario.node[643].veinsmobility 	totalTime 	70.8
scalar RSUExampleScenario.node[643].veinsmobility 	stopTime 	2000
scalar RSUExampleScenario.node[643].veinsmobility 	minSpeed 	0.25213529346953
scalar RSUExampleScenario.node[643].veinsmobility 	maxSpeed 	13.999571471093
scalar RSUExampleScenario.node[643].veinsmobility 	totalDistance 	830.91485982267
scalar RSUExampleScenario.node[643].veinsmobility 	totalCO2Emission 	207.7792686983
scalar RSUExampleScenario.node[644].veinsmobility 	startTime 	1932.1
scalar RSUExampleScenario.node[644].veinsmobility 	totalTime 	67.8
scalar RSUExampleScenario.node[644].veinsmobility 	stopTime 	2000
scalar RSUExampleScenario.node[644].veinsmobility 	minSpeed 	0.25305259965616
scalar RSUExampleScenario.node[644].veinsmobility 	maxSpeed 	13.999830809569
scalar RSUExampleScenario.node[644].veinsmobility 	totalDistance 	789.63724635295
scalar RSUExampleScenario.node[644].veinsmobility 	totalCO2Emission 	200.0596282398
scalar RSUExampleScenario.node[645].veinsmobility 	startTime 	1935.1
scalar RSUExampleScenario.node[645].veinsmobility 	totalTime 	64.8
scalar RSUExampleScenario.node[645].veinsmobility 	stopTime 	2000
scalar RSUExampleScenario.node[645].veinsmobility 	minSpeed 	0.25674123628368
scalar RSUExampleScenario.node[645].veinsmobility 	maxSpeed 	13.999835891684
scalar RSUExampleScenario.node[645].veinsmobility 	totalDistance 	746.93939805953
scalar RSUExampleScenario.node[645].veinsmobility 	totalCO2Emission 	192.71679249032
scalar RSUExampleScenario.node[646].veinsmobility 	startTime 	1938.1
scalar RSUExampleScenario.node[646].veinsmobility 	totalTime 	61.8
scalar RSUExampleScenario.node[646].veinsmobility 	stopTime 	2000
scalar RSUExampleScenario.node[646].veinsmobility 	minSpeed 	0.25924844325939
scalar RSUExampleScenario.node[646].veinsmobility 	maxSpeed 	13.999806032015
scalar RSUExampleScenario.node[646].veinsmobility 	totalDistance 	707.18856838233
scalar RSUExampleScenario.node[646].veinsmobility 	totalCO2Emission 	184.23134562889
scalar RSUExampleScenario.node[647].veinsmobility 	startTime 	1941.1
scalar RSUExampleScenario.node[647].veinsmobility 	totalTime 	58.8
scalar RSUExampleScenario.node[647].veinsmobility 	stopTime 	2000
scalar RSUExampleScenario.node[647].veinsmobility 	minSpeed 	0.24850625883322
scalar RSUExampleScenario.node[647].veinsmobility 	maxSpeed 	13.998853786902
scalar RSUExampleScenario.node[647].veinsmobility 	totalDistance 	666.7581917344
scalar RSUExampleScenario.node[647].veinsmobility 	totalCO2Emission 	178.17342777354
scalar RSUExampleScenario.node[648].veinsmobility 	startTime 	1944.1
scalar RSUExampleScenario.node[648].veinsmobility 	totalTime 	55.8
scalar RSUExampleScenario.node[648].veinsmobility 	stopTime 	2000
scalar RSUExampleScenario.node[648].veinsmobility 	minSpeed 	0.25470981736411
scalar RSUExampleScenario.node[648].veinsmobility 	maxSpeed 	13.999388874487
scalar RSUExampleScenario.node[648].veinsmobility 	totalDistance 	622.80248489413
scalar RSUExampleScenario.node[648].veinsmobility 	totalCO2Emission 	170.33607594314
scalar RSUExampleScenario.node[649].veinsmobility 	startTime 	1947.1
scalar RSUExampleScenario.node[649].veinsmobility 	totalTime 	52.8
scalar RSUExampleScenario.node[649].veinsmobility 	stopTime 	2000
scalar RSUExampleScenario.node[649].veinsmobility 	minSpeed 	0.24733127701562
scalar RSUExampleScenario.node[649].veinsmobility 	maxSpeed 	13.999723964676
scalar RSUExampleScenario.node[649].veinsmobility 	totalDistance 	580.29915223241
scalar RSUExampleScenario.node[649].veinsmobility 	totalCO2Emission 	164.69797985687
scalar RSUExampleScenario.node[650].veinsmobility 	startTime 	1950.1
scalar RSUExampleScenario.node[650].veinsmobility 	totalTime 	49.8
scalar RSUExampleScenario.node[650].veinsmobility 	stopTime 	2000
scalar RSUExampleScenario.node[650].veinsmobility 	minSpeed 	0.25128019560478
scalar RSUExampleScenario.node[650].veinsmobility 	maxSpeed 	13.999780806345
scalar RSUExampleScenario.node[650].veinsmobility 	totalDistance 	539.35812029813
scalar RSUExampleScenario.node[650].veinsmobility 	totalCO2Emission 	157.44382457256
scalar RSUExampleScenario.node[651].veinsmobility 	startTime 	1953.1
scalar RSUExampleScenario.node[651].veinsmobility 	totalTime 	46.8
scalar RSUExampleScenario.node[651].veinsmobility 	stopTime 	2000
scalar RSUExampleScenario.node[651].veinsmobility 	minSpeed 	0.25606668039458
scalar RSUExampleScenario.node[651].veinsmobility 	maxSpeed 	13.999868268741
scalar RSUExampleScenario.node[651].veinsmobility 	totalDistance 	499.16620075756
scalar RSUExampleScenario.node[651].veinsmobility 	totalCO2Emission 	150.71926813781
scalar RSUExampleScenario.node[652].veinsmobility 	startTime 	1956.1
scalar RSUExampleScenario.node[652].veinsmobility 	totalTime 	43.8
scalar RSUExampleScenario.node[652].veinsmobility 	stopTime 	2000
scalar RSUExampleScenario.node[652].veinsmobility 	minSpeed 	0.24796251672925
scalar RSUExampleScenario.node[652].veinsmobility 	maxSpeed 	13.998483686494
scalar RSUExampleScenario.node[652].veinsmobility 	totalDistance 	456.88612618763
scalar RSUExampleScenario.node[652].veinsmobility 	totalCO2Emission 	144.81035185182
scalar RSUExampleScenario.node[653].veinsmobility 	startTime 	1959.1
scalar RSUExampleScenario.node[653].veinsmobility 	totalTime 	40.8
scalar RSUExampleScenario.node[653].veinsmobility 	stopTime 	2000
scalar RSUExampleScenario.node[653].veinsmobility 	minSpeed 	0.25161206375714
scalar RSUExampleScenario.node[653].veinsmobility 	maxSpeed 	13.998011476044
scalar RSUExampleScenario.node[653].veinsmobility 	totalDistance 	411.9462194184
scalar RSUExampleScenario.node[653].veinsmobility 	totalCO2Emission 	136.94871660563
scalar RSUExampleScenario.node[654].veinsmobility 	startTime 	1962.1
scalar RSUExampleScenario.node[654].veinsmobility 	totalTime 	37.8
scalar RSUExampleScenario.node[654].veinsmobility 	stopTime 	2000
scalar RSUExampleScenario.node[654].veinsmobility 	minSpeed 	0.25596684225253
scalar RSUExampleScenario.node[654].veinsmobility 	maxSpeed 	13.99943263497
scalar RSUExampleScenario.node[654].veinsmobility 	totalDistance 	370.65835252826
scalar RSUExampleScenario.node[654].veinsmobility 	totalCO2Emission 	129.06617256738
scalar RSUExampleScenario.node[655].veinsmobility 	startTime 	1965.1
scalar RSUExampleScenario.node[655].veinsmobility 	totalTime 	34.8
scalar RSUExampleScenario.node[655].veinsmobility 	stopTime 	2000
scalar RSUExampleScenario.node[655].veinsmobility 	minSpeed 	0.25634254402062
scalar RSUExampleScenario.node[655].veinsmobility 	maxSpeed 	13.995730563304
scalar RSUExampleScenario.node[655].veinsmobility 	totalDistance 	329.51836453636
scalar RSUExampleScenario.node[655].veinsmobility 	totalCO2Emission 	121.79492166097
scalar RSUExampleScenario.node[656].veinsmobility 	startTime 	1968.1
scalar RSUExampleScenario.node[656].veinsmobility 	totalTime 	31.8
scalar RSUExampleScenario.node[656].veinsmobility 	stopTime 	2000
scalar RSUExampleScenario.node[656].veinsmobility 	minSpeed 	0.25633768853359
scalar RSUExampleScenario.node[656].veinsmobility 	maxSpeed 	13.999315823738
scalar RSUExampleScenario.node[656].veinsmobility 	totalDistance 	287.0634321224
scalar RSUExampleScenario.node[656].veinsmobility 	totalCO2Emission 	114.86599198189
scalar RSUExampleScenario.node[657].veinsmobility 	startTime 	1971.1
scalar RSUExampleScenario.node[657].veinsmobility 	totalTime 	28.8
scalar RSUExampleScenario.node[657].veinsmobility 	stopTime 	2000
scalar RSUExampleScenario.node[657].veinsmobility 	minSpeed 	0.25845450899587
scalar RSUExampleScenario.node[657].veinsmobility 	maxSpeed 	13.886324342205
scalar RSUExampleScenario.node[657].veinsmobility 	totalDistance 	249.47918675708
scalar RSUExampleScenario.node[657].veinsmobility 	totalCO2Emission 	98.815344211241
scalar RSUExampleScenario.node[658].veinsmobility 	startTime 	1974.1
scalar RSUExampleScenario.node[658].veinsmobility 	totalTime 	25.8
scalar RSUExampleScenario.node[658].veinsmobility 	stopTime 	2000
scalar RSUExampleScenario.node[658].veinsmobility 	minSpeed 	0.25783519649017
scalar RSUExampleScenario.node[658].veinsmobility 	maxSpeed 	13.879933753121
scalar RSUExampleScenario.node[658].veinsmobility 	totalDistance 	226.1222677399
scalar RSUExampleScenario.node[658].veinsmobility 	totalCO2Emission 	83.085671786584
scalar RSUExampleScenario.node[659].veinsmobility 	startTime 	1977.1
scalar RSUExampleScenario.node[659].veinsmobility 	totalTime 	22.8
scalar RSUExampleScenario.node[659].veinsmobility 	stopTime 	2000
scalar RSUExampleScenario.node[659].veinsmobility 	minSpeed 	0.24720197778591
scalar RSUExampleScenario.node[659].veinsmobility 	maxSpeed 	13.881449114578
scalar RSUExampleScenario.node[659].veinsmobility 	totalDistance 	208.09693314481
scalar RSUExampleScenario.node[659].veinsmobility 	totalCO2Emission 	78.30044422576
scalar RSUExampleScenario.node[660].veinsmobility 	startTime 	1980.1
scalar RSUExampleScenario.node[660].veinsmobility 	totalTime 	19.8
scalar RSUExampleScenario.node[660].veinsmobility 	stopTime 	2000
scalar RSUExampleScenario.node[660].veinsmobility 	minSpeed 	0.2487827609533
scalar RSUExampleScenario.node[660].veinsmobility 	maxSpeed 	13.888801143584
scalar RSUExampleScenario.node[660].veinsmobility 	totalDistance 	175.14436173498
scalar RSUExampleScenario.node[660].veinsmobility 	totalCO2Emission 	76.089311713131
scalar RSUExampleScenario.node[661].veinsmobility 	startTime 	1983.1
scalar RSUExampleScenario.node[661].veinsmobility 	totalTime 	16.8
scalar RSUExampleScenario.node[661].veinsmobility 	stopTime 	2000
scalar RSUExampleScenario.node[661].veinsmobility 	minSpeed 	0.25896606646874
scalar RSUExampleScenario.node[661].veinsmobility 	maxSpeed 	13.881791889262
scalar RSUExampleScenario.node[661].veinsmobility 	totalDistance 	137.63361046735
scalar RSUExampleScenario.node[661].veinsmobility 	totalCO2Emission 	57.95804946998
scalar RSUExampleScenario.node[662].veinsmobility 	startTime 	1986.1
scalar RSUExampleScenario.node[662].veinsmobility 	totalTime 	13.8
scalar RSUExampleScenario.node[662].veinsmobility 	stopTime 	2000
scalar RSUExampleScenario.node[662].veinsmobility 	minSpeed 	0.25185649041669
scalar RSUExampleScenario.node[662].veinsmobility 	maxSpeed 	13.88372352636
scalar RSUExampleScenario.node[662].veinsmobility 	totalDistance 	116.90471629634
scalar RSUExampleScenario.node[662].veinsmobility 	totalCO2Emission 	42.647016633985
scalar RSUExampleScenario.node[663].veinsmobility 	startTime 	1989.1
scalar RSUExampleScenario.node[663].veinsmobility 	totalTime 	10.8
scalar RSUExampleScenario.node[663].veinsmobility 	stopTime 	2000
scalar RSUExampleScenario.node[663].veinsmobility 	minSpeed 	0.25771546470979
scalar RSUExampleScenario.node[663].veinsmobility 	maxSpeed 	13.889751338616
scalar RSUExampleScenario.node[663].veinsmobility 	totalDistance 	96.84413895336
scalar RSUExampleScenario.node[663].veinsmobility 	totalCO2Emission 	39.642503478564
scalar RSUExampleScenario.node[664].veinsmobility 	startTime 	1992.1
scalar RSUExampleScenario.node[664].veinsmobility 	totalTime 	7.8
scalar RSUExampleScenario.node[664].veinsmobility 	stopTime 	2000
scalar RSUExampleScenario.node[664].veinsmobility 	minSpeed 	0.25159726846404
scalar RSUExampleScenario.node[664].veinsmobility 	maxSpeed 	13.882158466023
scalar RSUExampleScenario.node[664].veinsmobility 	totalDistance 	62.292677546149
scalar RSUExampleScenario.node[664].veinsmobility 	totalCO2Emission 	35.783372667788
scalar RSUExampleScenario.node[665].veinsmobility 	startTime 	1995.1
scalar RSUExampleScenario.node[665].veinsmobility 	totalTime 	4.8
scalar RSUExampleScenario.node[665].veinsmobility 	stopTime 	2000
scalar RSUExampleScenario.node[665].veinsmobility 	minSpeed 	0.25403243509308
scalar RSUExampleScenario.node[665].veinsmobility 	maxSpeed 	9.6139872428481
scalar RSUExampleScenario.node[665].veinsmobility 	totalDistance 	23.869638348524
scalar RSUExampleScenario.node[665].veinsmobility 	totalCO2Emission 	17.833699309041
scalar RSUExampleScenario.node[666].veinsmobility 	startTime 	1998.1
scalar RSUExampleScenario.node[666].veinsmobility 	totalTime 	1.8
scalar RSUExampleScenario.node[666].veinsmobility 	stopTime 	2000
scalar RSUExampleScenario.node[666].veinsmobility 	minSpeed 	0.25679238785035
scalar RSUExampleScenario.node[666].veinsmobility 	maxSpeed 	3.6969116391662
scalar RSUExampleScenario.node[666].veinsmobility 	totalDistance 	3.7175164900652
scalar RSUExampleScenario.node[666].veinsmobility 	totalCO2Emission 	3.792676593616
