version 2
run statisticRVV-236-20150326-10:27:53-9408
attr c 6
attr configname statisticRVV
attr datetime 20150326-10:27:53
attr experiment statisticRVV
attr inifile omnetpp.ini
attr iterationvars "$sc=\"erlangen-medium.launchd.xml\", $p=1/5, $c=6"
attr iterationvars2 "$sc=\"erlangen-medium.launchd.xml\", $p=1/5, $c=6, $repetition=6"
attr measurement "$sc=\"erlangen-medium.launchd.xml\", $p=1/5, $c=6"
attr network RSUExampleScenario
attr p 1/5
attr processid 9408
attr repetition 6
attr replication #6
attr resultdir results
attr runnumber 236
attr sc "\"erlangen-medium.launchd.xml\""
attr seedset 236

scalar . 	c 	6
scalar RSUExampleScenario.node[0].veinsmobility 	startTime 	0.1
scalar RSUExampleScenario.node[0].veinsmobility 	totalTime 	264.7
scalar RSUExampleScenario.node[0].veinsmobility 	stopTime 	264.9
scalar RSUExampleScenario.node[0].veinsmobility 	minSpeed 	0.25898774447734
scalar RSUExampleScenario.node[0].veinsmobility 	maxSpeed 	13.999948425747
scalar RSUExampleScenario.node[0].veinsmobility 	totalDistance 	3409.8701235837
scalar RSUExampleScenario.node[0].veinsmobility 	totalCO2Emission 	691.36228690747
scalar RSUExampleScenario.node[1].veinsmobility 	startTime 	3.1
scalar RSUExampleScenario.node[1].veinsmobility 	totalTime 	265.5
scalar RSUExampleScenario.node[1].veinsmobility 	stopTime 	268.7
scalar RSUExampleScenario.node[1].veinsmobility 	minSpeed 	0.25883186164335
scalar RSUExampleScenario.node[1].veinsmobility 	maxSpeed 	13.999935610525
scalar RSUExampleScenario.node[1].veinsmobility 	totalDistance 	3409.3036131295
scalar RSUExampleScenario.node[1].veinsmobility 	totalCO2Emission 	691.14379061058
scalar RSUExampleScenario.node[2].veinsmobility 	startTime 	6.1
scalar RSUExampleScenario.node[2].veinsmobility 	totalTime 	266.1
scalar RSUExampleScenario.node[2].veinsmobility 	stopTime 	272.3
scalar RSUExampleScenario.node[2].veinsmobility 	minSpeed 	0.25568187149265
scalar RSUExampleScenario.node[2].veinsmobility 	maxSpeed 	13.999961659424
scalar RSUExampleScenario.node[2].veinsmobility 	totalDistance 	3409.3285293886
scalar RSUExampleScenario.node[2].veinsmobility 	totalCO2Emission 	691.10903129594
scalar RSUExampleScenario.node[3].veinsmobility 	startTime 	9.1
scalar RSUExampleScenario.node[3].veinsmobility 	totalTime 	266.5
scalar RSUExampleScenario.node[3].veinsmobility 	stopTime 	275.7
scalar RSUExampleScenario.node[3].veinsmobility 	minSpeed 	0.24998691953928
scalar RSUExampleScenario.node[3].veinsmobility 	maxSpeed 	13.999865600225
scalar RSUExampleScenario.node[3].veinsmobility 	totalDistance 	3409.7336392421
scalar RSUExampleScenario.node[3].veinsmobility 	totalCO2Emission 	691.35165154669
scalar RSUExampleScenario.node[4].veinsmobility 	startTime 	12.1
scalar RSUExampleScenario.node[4].veinsmobility 	totalTime 	266.8
scalar RSUExampleScenario.node[4].veinsmobility 	stopTime 	279
scalar RSUExampleScenario.node[4].veinsmobility 	minSpeed 	0.24963034327468
scalar RSUExampleScenario.node[4].veinsmobility 	maxSpeed 	13.999981254523
scalar RSUExampleScenario.node[4].veinsmobility 	totalDistance 	3413.4222196389
scalar RSUExampleScenario.node[4].veinsmobility 	totalCO2Emission 	690.43087477231
scalar RSUExampleScenario.node[5].veinsmobility 	startTime 	15.1
scalar RSUExampleScenario.node[5].veinsmobility 	totalTime 	266.9
scalar RSUExampleScenario.node[5].veinsmobility 	stopTime 	282.1
scalar RSUExampleScenario.node[5].veinsmobility 	minSpeed 	0.2541453428627
scalar RSUExampleScenario.node[5].veinsmobility 	maxSpeed 	13.999772716833
scalar RSUExampleScenario.node[5].veinsmobility 	totalDistance 	3409.1938761163
scalar RSUExampleScenario.node[5].veinsmobility 	totalCO2Emission 	692.10905575602
scalar RSUExampleScenario.node[6].veinsmobility 	startTime 	18.1
scalar RSUExampleScenario.node[6].veinsmobility 	totalTime 	266.9
scalar RSUExampleScenario.node[6].veinsmobility 	stopTime 	285.1
scalar RSUExampleScenario.node[6].veinsmobility 	minSpeed 	0.25946986911772
scalar RSUExampleScenario.node[6].veinsmobility 	maxSpeed 	13.999814174618
scalar RSUExampleScenario.node[6].veinsmobility 	totalDistance 	3413.824662851
scalar RSUExampleScenario.node[6].veinsmobility 	totalCO2Emission 	692.14295224438
scalar RSUExampleScenario.node[7].veinsmobility 	startTime 	21.1
scalar RSUExampleScenario.node[7].veinsmobility 	totalTime 	266.9
scalar RSUExampleScenario.node[7].veinsmobility 	stopTime 	288.1
scalar RSUExampleScenario.node[7].veinsmobility 	minSpeed 	0.25110173138091
scalar RSUExampleScenario.node[7].veinsmobility 	maxSpeed 	13.999753799161
scalar RSUExampleScenario.node[7].veinsmobility 	totalDistance 	3409.5811649908
scalar RSUExampleScenario.node[7].veinsmobility 	totalCO2Emission 	690.84788790491
scalar RSUExampleScenario.node[8].veinsmobility 	startTime 	24.1
scalar RSUExampleScenario.node[8].veinsmobility 	totalTime 	267
scalar RSUExampleScenario.node[8].veinsmobility 	stopTime 	291.2
scalar RSUExampleScenario.node[8].veinsmobility 	minSpeed 	0.24894759330666
scalar RSUExampleScenario.node[8].veinsmobility 	maxSpeed 	13.999887384849
scalar RSUExampleScenario.node[8].veinsmobility 	totalDistance 	3413.9323128409
scalar RSUExampleScenario.node[8].veinsmobility 	totalCO2Emission 	690.73057522922
scalar RSUExampleScenario.node[9].veinsmobility 	startTime 	27.1
scalar RSUExampleScenario.node[9].veinsmobility 	totalTime 	267
scalar RSUExampleScenario.node[9].veinsmobility 	stopTime 	294.2
scalar RSUExampleScenario.node[9].veinsmobility 	minSpeed 	0.25853488515737
scalar RSUExampleScenario.node[9].veinsmobility 	maxSpeed 	13.9999947785
scalar RSUExampleScenario.node[9].veinsmobility 	totalDistance 	3409.3493054057
scalar RSUExampleScenario.node[9].veinsmobility 	totalCO2Emission 	689.47687756723
scalar RSUExampleScenario.node[10].veinsmobility 	startTime 	30.1
scalar RSUExampleScenario.node[10].veinsmobility 	totalTime 	267
scalar RSUExampleScenario.node[10].veinsmobility 	stopTime 	297.2
scalar RSUExampleScenario.node[10].veinsmobility 	minSpeed 	0.25252692542272
scalar RSUExampleScenario.node[10].veinsmobility 	maxSpeed 	13.999888835715
scalar RSUExampleScenario.node[10].veinsmobility 	totalDistance 	3413.562982507
scalar RSUExampleScenario.node[10].veinsmobility 	totalCO2Emission 	694.61029859658
scalar RSUExampleScenario.node[11].veinsmobility 	startTime 	33.1
scalar RSUExampleScenario.node[11].veinsmobility 	totalTime 	266.9
scalar RSUExampleScenario.node[11].veinsmobility 	stopTime 	300.1
scalar RSUExampleScenario.node[11].veinsmobility 	minSpeed 	0.25677200075611
scalar RSUExampleScenario.node[11].veinsmobility 	maxSpeed 	13.999923149347
scalar RSUExampleScenario.node[11].veinsmobility 	totalDistance 	3409.3439295243
scalar RSUExampleScenario.node[11].veinsmobility 	totalCO2Emission 	691.04680174192
scalar RSUExampleScenario.node[12].veinsmobility 	startTime 	36.1
scalar RSUExampleScenario.node[12].veinsmobility 	totalTime 	267
scalar RSUExampleScenario.node[12].veinsmobility 	stopTime 	303.2
scalar RSUExampleScenario.node[12].veinsmobility 	minSpeed 	0.25065312986122
scalar RSUExampleScenario.node[12].veinsmobility 	maxSpeed 	13.999952429717
scalar RSUExampleScenario.node[12].veinsmobility 	totalDistance 	3413.6275045211
scalar RSUExampleScenario.node[12].veinsmobility 	totalCO2Emission 	690.47639709942
scalar RSUExampleScenario.node[13].veinsmobility 	startTime 	39.1
scalar RSUExampleScenario.node[13].veinsmobility 	totalTime 	267.1
scalar RSUExampleScenario.node[13].veinsmobility 	stopTime 	306.3
scalar RSUExampleScenario.node[13].veinsmobility 	minSpeed 	0.25553463974176
scalar RSUExampleScenario.node[13].veinsmobility 	maxSpeed 	13.999931645147
scalar RSUExampleScenario.node[13].veinsmobility 	totalDistance 	3409.4342104033
scalar RSUExampleScenario.node[13].veinsmobility 	totalCO2Emission 	691.19172884108
scalar RSUExampleScenario.node[14].veinsmobility 	startTime 	42.1
scalar RSUExampleScenario.node[14].veinsmobility 	totalTime 	267.1
scalar RSUExampleScenario.node[14].veinsmobility 	stopTime 	309.3
scalar RSUExampleScenario.node[14].veinsmobility 	minSpeed 	0.25201297391579
scalar RSUExampleScenario.node[14].veinsmobility 	maxSpeed 	13.999992736774
scalar RSUExampleScenario.node[14].veinsmobility 	totalDistance 	3413.9538847946
scalar RSUExampleScenario.node[14].veinsmobility 	totalCO2Emission 	688.73592735106
scalar RSUExampleScenario.node[15].veinsmobility 	startTime 	45.1
scalar RSUExampleScenario.node[15].veinsmobility 	totalTime 	267.1
scalar RSUExampleScenario.node[15].veinsmobility 	stopTime 	312.3
scalar RSUExampleScenario.node[15].veinsmobility 	minSpeed 	0.25559512397205
scalar RSUExampleScenario.node[15].veinsmobility 	maxSpeed 	13.999984927664
scalar RSUExampleScenario.node[15].veinsmobility 	totalDistance 	3409.5152713391
scalar RSUExampleScenario.node[15].veinsmobility 	totalCO2Emission 	689.82186684353
scalar RSUExampleScenario.node[16].veinsmobility 	startTime 	48.1
scalar RSUExampleScenario.node[16].veinsmobility 	totalTime 	267.2
scalar RSUExampleScenario.node[16].veinsmobility 	stopTime 	315.4
scalar RSUExampleScenario.node[16].veinsmobility 	minSpeed 	0.25631273200293
scalar RSUExampleScenario.node[16].veinsmobility 	maxSpeed 	13.999997753298
scalar RSUExampleScenario.node[16].veinsmobility 	totalDistance 	3413.581630947
scalar RSUExampleScenario.node[16].veinsmobility 	totalCO2Emission 	693.37506604538
scalar RSUExampleScenario.node[17].veinsmobility 	startTime 	51.1
scalar RSUExampleScenario.node[17].veinsmobility 	totalTime 	267.2
scalar RSUExampleScenario.node[17].veinsmobility 	stopTime 	318.4
scalar RSUExampleScenario.node[17].veinsmobility 	minSpeed 	0.24803312915657
scalar RSUExampleScenario.node[17].veinsmobility 	maxSpeed 	13.999945221457
scalar RSUExampleScenario.node[17].veinsmobility 	totalDistance 	3409.907964594
scalar RSUExampleScenario.node[17].veinsmobility 	totalCO2Emission 	692.09164881271
scalar RSUExampleScenario.node[18].veinsmobility 	startTime 	54.1
scalar RSUExampleScenario.node[18].veinsmobility 	totalTime 	267.2
scalar RSUExampleScenario.node[18].veinsmobility 	stopTime 	321.4
scalar RSUExampleScenario.node[18].veinsmobility 	minSpeed 	0.24856712100469
scalar RSUExampleScenario.node[18].veinsmobility 	maxSpeed 	13.999728941489
scalar RSUExampleScenario.node[18].veinsmobility 	totalDistance 	3413.5514581406
scalar RSUExampleScenario.node[18].veinsmobility 	totalCO2Emission 	694.78798913703
scalar RSUExampleScenario.node[19].veinsmobility 	startTime 	57.1
scalar RSUExampleScenario.node[19].veinsmobility 	totalTime 	267.2
scalar RSUExampleScenario.node[19].veinsmobility 	stopTime 	324.4
scalar RSUExampleScenario.node[19].veinsmobility 	minSpeed 	0.2513178781427
scalar RSUExampleScenario.node[19].veinsmobility 	maxSpeed 	13.999968094972
scalar RSUExampleScenario.node[19].veinsmobility 	totalDistance 	3409.696627924
scalar RSUExampleScenario.node[19].veinsmobility 	totalCO2Emission 	691.75281322114
scalar RSUExampleScenario.node[20].veinsmobility 	startTime 	60.1
scalar RSUExampleScenario.node[20].veinsmobility 	totalTime 	267.3
scalar RSUExampleScenario.node[20].veinsmobility 	stopTime 	327.5
scalar RSUExampleScenario.node[20].veinsmobility 	minSpeed 	0.24786131151253
scalar RSUExampleScenario.node[20].veinsmobility 	maxSpeed 	13.999997824489
scalar RSUExampleScenario.node[20].veinsmobility 	totalDistance 	3414.3169143887
scalar RSUExampleScenario.node[20].veinsmobility 	totalCO2Emission 	688.08508575748
scalar RSUExampleScenario.node[21].veinsmobility 	startTime 	63.1
scalar RSUExampleScenario.node[21].veinsmobility 	totalTime 	267.3
scalar RSUExampleScenario.node[21].veinsmobility 	stopTime 	330.5
scalar RSUExampleScenario.node[21].veinsmobility 	minSpeed 	0.25809629087779
scalar RSUExampleScenario.node[21].veinsmobility 	maxSpeed 	13.999870932263
scalar RSUExampleScenario.node[21].veinsmobility 	totalDistance 	3409.3432305387
scalar RSUExampleScenario.node[21].veinsmobility 	totalCO2Emission 	687.67724648636
scalar RSUExampleScenario.node[22].veinsmobility 	startTime 	66.1
scalar RSUExampleScenario.node[22].veinsmobility 	totalTime 	267.3
scalar RSUExampleScenario.node[22].veinsmobility 	stopTime 	333.5
scalar RSUExampleScenario.node[22].veinsmobility 	minSpeed 	0.25576924159238
scalar RSUExampleScenario.node[22].veinsmobility 	maxSpeed 	13.999944700121
scalar RSUExampleScenario.node[22].veinsmobility 	totalDistance 	3413.732700725
scalar RSUExampleScenario.node[22].veinsmobility 	totalCO2Emission 	691.89606810377
scalar RSUExampleScenario.node[23].veinsmobility 	startTime 	69.1
scalar RSUExampleScenario.node[23].veinsmobility 	totalTime 	267.3
scalar RSUExampleScenario.node[23].veinsmobility 	stopTime 	336.5
scalar RSUExampleScenario.node[23].veinsmobility 	minSpeed 	0.2507870461389
scalar RSUExampleScenario.node[23].veinsmobility 	maxSpeed 	13.999891860394
scalar RSUExampleScenario.node[23].veinsmobility 	totalDistance 	3409.6481862586
scalar RSUExampleScenario.node[23].veinsmobility 	totalCO2Emission 	687.60493730898
scalar RSUExampleScenario.node[24].veinsmobility 	startTime 	72.1
scalar RSUExampleScenario.node[24].veinsmobility 	totalTime 	267.4
scalar RSUExampleScenario.node[24].veinsmobility 	stopTime 	339.6
scalar RSUExampleScenario.node[24].veinsmobility 	minSpeed 	0.24753119494417
scalar RSUExampleScenario.node[24].veinsmobility 	maxSpeed 	13.999956044804
scalar RSUExampleScenario.node[24].veinsmobility 	totalDistance 	3414.3013530239
scalar RSUExampleScenario.node[24].veinsmobility 	totalCO2Emission 	697.08459394262
scalar RSUExampleScenario.node[25].veinsmobility 	startTime 	75.1
scalar RSUExampleScenario.node[25].veinsmobility 	totalTime 	267.5
scalar RSUExampleScenario.node[25].veinsmobility 	stopTime 	342.7
scalar RSUExampleScenario.node[25].veinsmobility 	minSpeed 	0.25047298982926
scalar RSUExampleScenario.node[25].veinsmobility 	maxSpeed 	13.999949200547
scalar RSUExampleScenario.node[25].veinsmobility 	totalDistance 	3409.5584060204
scalar RSUExampleScenario.node[25].veinsmobility 	totalCO2Emission 	691.8996216418
scalar RSUExampleScenario.node[26].veinsmobility 	startTime 	78.1
scalar RSUExampleScenario.node[26].veinsmobility 	totalTime 	267.6
scalar RSUExampleScenario.node[26].veinsmobility 	stopTime 	345.8
scalar RSUExampleScenario.node[26].veinsmobility 	minSpeed 	0.25762355776015
scalar RSUExampleScenario.node[26].veinsmobility 	maxSpeed 	13.999896876707
scalar RSUExampleScenario.node[26].veinsmobility 	totalDistance 	3413.7445896687
scalar RSUExampleScenario.node[26].veinsmobility 	totalCO2Emission 	691.26572078877
scalar RSUExampleScenario.node[27].veinsmobility 	startTime 	81.1
scalar RSUExampleScenario.node[27].veinsmobility 	totalTime 	267.8
scalar RSUExampleScenario.node[27].veinsmobility 	stopTime 	349
scalar RSUExampleScenario.node[27].veinsmobility 	minSpeed 	0.24793753769738
scalar RSUExampleScenario.node[27].veinsmobility 	maxSpeed 	13.999893107798
scalar RSUExampleScenario.node[27].veinsmobility 	totalDistance 	3409.6431412711
scalar RSUExampleScenario.node[27].veinsmobility 	totalCO2Emission 	687.27010370191
scalar RSUExampleScenario.node[28].veinsmobility 	startTime 	84.1
scalar RSUExampleScenario.node[28].veinsmobility 	totalTime 	268
scalar RSUExampleScenario.node[28].veinsmobility 	stopTime 	352.2
scalar RSUExampleScenario.node[28].veinsmobility 	minSpeed 	0.25813220719714
scalar RSUExampleScenario.node[28].veinsmobility 	maxSpeed 	13.99995428463
scalar RSUExampleScenario.node[28].veinsmobility 	totalDistance 	3413.9730953247
scalar RSUExampleScenario.node[28].veinsmobility 	totalCO2Emission 	688.79520482561
scalar RSUExampleScenario.node[29].veinsmobility 	startTime 	87.1
scalar RSUExampleScenario.node[29].veinsmobility 	totalTime 	268.2
scalar RSUExampleScenario.node[29].veinsmobility 	stopTime 	355.4
scalar RSUExampleScenario.node[29].veinsmobility 	minSpeed 	0.25756876047538
scalar RSUExampleScenario.node[29].veinsmobility 	maxSpeed 	13.999650800815
scalar RSUExampleScenario.node[29].veinsmobility 	totalDistance 	3409.3664622151
scalar RSUExampleScenario.node[29].veinsmobility 	totalCO2Emission 	693.07952774
scalar RSUExampleScenario.node[30].veinsmobility 	startTime 	90.1
scalar RSUExampleScenario.node[30].veinsmobility 	totalTime 	268.4
scalar RSUExampleScenario.node[30].veinsmobility 	stopTime 	358.6
scalar RSUExampleScenario.node[30].veinsmobility 	minSpeed 	0.25585985366255
scalar RSUExampleScenario.node[30].veinsmobility 	maxSpeed 	13.999892600931
scalar RSUExampleScenario.node[30].veinsmobility 	totalDistance 	3409.4566602368
scalar RSUExampleScenario.node[30].veinsmobility 	totalCO2Emission 	688.97541389825
scalar RSUExampleScenario.node[31].veinsmobility 	startTime 	93.1
scalar RSUExampleScenario.node[31].veinsmobility 	totalTime 	268.7
scalar RSUExampleScenario.node[31].veinsmobility 	stopTime 	361.9
scalar RSUExampleScenario.node[31].veinsmobility 	minSpeed 	0.25083202103316
scalar RSUExampleScenario.node[31].veinsmobility 	maxSpeed 	13.999984198145
scalar RSUExampleScenario.node[31].veinsmobility 	totalDistance 	3414.1081319988
scalar RSUExampleScenario.node[31].veinsmobility 	totalCO2Emission 	694.34706439835
scalar RSUExampleScenario.node[32].veinsmobility 	startTime 	96.1
scalar RSUExampleScenario.node[32].veinsmobility 	totalTime 	269.1
scalar RSUExampleScenario.node[32].veinsmobility 	stopTime 	365.3
scalar RSUExampleScenario.node[32].veinsmobility 	minSpeed 	0.24943595688068
scalar RSUExampleScenario.node[32].veinsmobility 	maxSpeed 	13.999939270741
scalar RSUExampleScenario.node[32].veinsmobility 	totalDistance 	3410.0863679212
scalar RSUExampleScenario.node[32].veinsmobility 	totalCO2Emission 	688.7719499838
scalar RSUExampleScenario.node[33].veinsmobility 	startTime 	99.1
scalar RSUExampleScenario.node[33].veinsmobility 	totalTime 	269.6
scalar RSUExampleScenario.node[33].veinsmobility 	stopTime 	368.8
scalar RSUExampleScenario.node[33].veinsmobility 	minSpeed 	0.24890082172002
scalar RSUExampleScenario.node[33].veinsmobility 	maxSpeed 	13.999875806831
scalar RSUExampleScenario.node[33].veinsmobility 	totalDistance 	3414.0463090794
scalar RSUExampleScenario.node[33].veinsmobility 	totalCO2Emission 	693.6203470167
scalar RSUExampleScenario.node[34].veinsmobility 	startTime 	102.1
scalar RSUExampleScenario.node[34].veinsmobility 	totalTime 	270.2
scalar RSUExampleScenario.node[34].veinsmobility 	stopTime 	372.4
scalar RSUExampleScenario.node[34].veinsmobility 	minSpeed 	0.25575950620114
scalar RSUExampleScenario.node[34].veinsmobility 	maxSpeed 	13.999881450629
scalar RSUExampleScenario.node[34].veinsmobility 	totalDistance 	3410.0322713739
scalar RSUExampleScenario.node[34].veinsmobility 	totalCO2Emission 	693.24860305902
scalar RSUExampleScenario.node[35].veinsmobility 	startTime 	105.1
scalar RSUExampleScenario.node[35].veinsmobility 	totalTime 	270.8
scalar RSUExampleScenario.node[35].veinsmobility 	stopTime 	376
scalar RSUExampleScenario.node[35].veinsmobility 	minSpeed 	0.24805067781312
scalar RSUExampleScenario.node[35].veinsmobility 	maxSpeed 	13.999964154263
scalar RSUExampleScenario.node[35].veinsmobility 	totalDistance 	3413.7201528303
scalar RSUExampleScenario.node[35].veinsmobility 	totalCO2Emission 	694.87005538507
scalar RSUExampleScenario.node[36].veinsmobility 	startTime 	108.1
scalar RSUExampleScenario.node[36].veinsmobility 	totalTime 	271.4
scalar RSUExampleScenario.node[36].veinsmobility 	stopTime 	379.6
scalar RSUExampleScenario.node[36].veinsmobility 	minSpeed 	0.25928385235695
scalar RSUExampleScenario.node[36].veinsmobility 	maxSpeed 	13.99997220821
scalar RSUExampleScenario.node[36].veinsmobility 	totalDistance 	3409.7956602342
scalar RSUExampleScenario.node[36].veinsmobility 	totalCO2Emission 	691.73456516421
scalar RSUExampleScenario.node[37].veinsmobility 	startTime 	111.1
scalar RSUExampleScenario.node[37].veinsmobility 	totalTime 	272
scalar RSUExampleScenario.node[37].veinsmobility 	stopTime 	383.2
scalar RSUExampleScenario.node[37].veinsmobility 	minSpeed 	0.25855980089889
scalar RSUExampleScenario.node[37].veinsmobility 	maxSpeed 	13.999965099078
scalar RSUExampleScenario.node[37].veinsmobility 	totalDistance 	3413.878089944
scalar RSUExampleScenario.node[37].veinsmobility 	totalCO2Emission 	695.33264712929
scalar RSUExampleScenario.node[38].veinsmobility 	startTime 	114.1
scalar RSUExampleScenario.node[38].veinsmobility 	totalTime 	272.7
scalar RSUExampleScenario.node[38].veinsmobility 	stopTime 	386.9
scalar RSUExampleScenario.node[38].veinsmobility 	minSpeed 	0.2573689063245
scalar RSUExampleScenario.node[38].veinsmobility 	maxSpeed 	13.99996283927
scalar RSUExampleScenario.node[38].veinsmobility 	totalDistance 	3410.0657207571
scalar RSUExampleScenario.node[38].veinsmobility 	totalCO2Emission 	689.90193379044
scalar RSUExampleScenario.node[39].veinsmobility 	startTime 	117.1
scalar RSUExampleScenario.node[39].veinsmobility 	totalTime 	273.4
scalar RSUExampleScenario.node[39].veinsmobility 	stopTime 	390.6
scalar RSUExampleScenario.node[39].veinsmobility 	minSpeed 	0.24754038173729
scalar RSUExampleScenario.node[39].veinsmobility 	maxSpeed 	13.999847337613
scalar RSUExampleScenario.node[39].veinsmobility 	totalDistance 	3413.7241057316
scalar RSUExampleScenario.node[39].veinsmobility 	totalCO2Emission 	695.37292295124
scalar RSUExampleScenario.node[40].veinsmobility 	startTime 	120.1
scalar RSUExampleScenario.node[40].veinsmobility 	totalTime 	274.2
scalar RSUExampleScenario.node[40].veinsmobility 	stopTime 	394.4
scalar RSUExampleScenario.node[40].veinsmobility 	minSpeed 	0.24883199533075
scalar RSUExampleScenario.node[40].veinsmobility 	maxSpeed 	13.999990376022
scalar RSUExampleScenario.node[40].veinsmobility 	totalDistance 	3409.8594677444
scalar RSUExampleScenario.node[40].veinsmobility 	totalCO2Emission 	695.93678730168
scalar RSUExampleScenario.node[41].veinsmobility 	startTime 	123.1
scalar RSUExampleScenario.node[41].veinsmobility 	totalTime 	274.9
scalar RSUExampleScenario.node[41].veinsmobility 	stopTime 	398.1
scalar RSUExampleScenario.node[41].veinsmobility 	minSpeed 	0.25807093489147
scalar RSUExampleScenario.node[41].veinsmobility 	maxSpeed 	13.999980218147
scalar RSUExampleScenario.node[41].veinsmobility 	totalDistance 	3414.0517275357
scalar RSUExampleScenario.node[41].veinsmobility 	totalCO2Emission 	693.02130742623
scalar RSUExampleScenario.node[42].veinsmobility 	startTime 	126.1
scalar RSUExampleScenario.node[42].veinsmobility 	totalTime 	275.6
scalar RSUExampleScenario.node[42].veinsmobility 	stopTime 	401.8
scalar RSUExampleScenario.node[42].veinsmobility 	minSpeed 	0.25970123878657
scalar RSUExampleScenario.node[42].veinsmobility 	maxSpeed 	13.99997095569
scalar RSUExampleScenario.node[42].veinsmobility 	totalDistance 	3410.022742083
scalar RSUExampleScenario.node[42].veinsmobility 	totalCO2Emission 	696.84175651398
scalar RSUExampleScenario.node[43].veinsmobility 	startTime 	129.1
scalar RSUExampleScenario.node[43].veinsmobility 	totalTime 	276.3
scalar RSUExampleScenario.node[43].veinsmobility 	stopTime 	405.5
scalar RSUExampleScenario.node[43].veinsmobility 	minSpeed 	0.24785102673015
scalar RSUExampleScenario.node[43].veinsmobility 	maxSpeed 	13.999476990853
scalar RSUExampleScenario.node[43].veinsmobility 	totalDistance 	3409.7325769948
scalar RSUExampleScenario.node[43].veinsmobility 	totalCO2Emission 	691.75205200597
scalar RSUExampleScenario.node[44].veinsmobility 	startTime 	132.1
scalar RSUExampleScenario.node[44].veinsmobility 	totalTime 	277
scalar RSUExampleScenario.node[44].veinsmobility 	stopTime 	409.2
scalar RSUExampleScenario.node[44].veinsmobility 	minSpeed 	0.2554468025798
scalar RSUExampleScenario.node[44].veinsmobility 	maxSpeed 	13.999991064165
scalar RSUExampleScenario.node[44].veinsmobility 	totalDistance 	3413.9120494802
scalar RSUExampleScenario.node[44].veinsmobility 	totalCO2Emission 	695.81213835922
scalar RSUExampleScenario.node[45].veinsmobility 	startTime 	135.1
scalar RSUExampleScenario.node[45].veinsmobility 	totalTime 	277.7
scalar RSUExampleScenario.node[45].veinsmobility 	stopTime 	412.9
scalar RSUExampleScenario.node[45].veinsmobility 	minSpeed 	0.24801723143086
scalar RSUExampleScenario.node[45].veinsmobility 	maxSpeed 	13.9996688063
scalar RSUExampleScenario.node[45].veinsmobility 	totalDistance 	3409.7597748857
scalar RSUExampleScenario.node[45].veinsmobility 	totalCO2Emission 	704.85854458425
scalar RSUExampleScenario.node[46].veinsmobility 	startTime 	138.1
scalar RSUExampleScenario.node[46].veinsmobility 	totalTime 	278.4
scalar RSUExampleScenario.node[46].veinsmobility 	stopTime 	416.6
scalar RSUExampleScenario.node[46].veinsmobility 	minSpeed 	0.25176974000852
scalar RSUExampleScenario.node[46].veinsmobility 	maxSpeed 	13.999909963312
scalar RSUExampleScenario.node[46].veinsmobility 	totalDistance 	3414.2816523295
scalar RSUExampleScenario.node[46].veinsmobility 	totalCO2Emission 	699.21174716924
scalar RSUExampleScenario.node[47].veinsmobility 	startTime 	141.1
scalar RSUExampleScenario.node[47].veinsmobility 	totalTime 	279.1
scalar RSUExampleScenario.node[47].veinsmobility 	stopTime 	420.3
scalar RSUExampleScenario.node[47].veinsmobility 	minSpeed 	0.24742952686036
scalar RSUExampleScenario.node[47].veinsmobility 	maxSpeed 	13.999962468033
scalar RSUExampleScenario.node[47].veinsmobility 	totalDistance 	3409.6607641305
scalar RSUExampleScenario.node[47].veinsmobility 	totalCO2Emission 	698.88823192448
scalar RSUExampleScenario.node[48].veinsmobility 	startTime 	144.1
scalar RSUExampleScenario.node[48].veinsmobility 	totalTime 	279.8
scalar RSUExampleScenario.node[48].veinsmobility 	stopTime 	424
scalar RSUExampleScenario.node[48].veinsmobility 	minSpeed 	0.25439378928905
scalar RSUExampleScenario.node[48].veinsmobility 	maxSpeed 	13.999934142164
scalar RSUExampleScenario.node[48].veinsmobility 	totalDistance 	3413.6533903901
scalar RSUExampleScenario.node[48].veinsmobility 	totalCO2Emission 	702.1298574852
scalar RSUExampleScenario.node[49].veinsmobility 	startTime 	147.1
scalar RSUExampleScenario.node[49].veinsmobility 	totalTime 	280.5
scalar RSUExampleScenario.node[49].veinsmobility 	stopTime 	427.7
scalar RSUExampleScenario.node[49].veinsmobility 	minSpeed 	0.25267486466048
scalar RSUExampleScenario.node[49].veinsmobility 	maxSpeed 	13.999997974073
scalar RSUExampleScenario.node[49].veinsmobility 	totalDistance 	3410.0175240511
scalar RSUExampleScenario.node[49].veinsmobility 	totalCO2Emission 	699.75773958769
scalar RSUExampleScenario.node[50].veinsmobility 	startTime 	150.1
scalar RSUExampleScenario.node[50].veinsmobility 	totalTime 	281.2
scalar RSUExampleScenario.node[50].veinsmobility 	stopTime 	431.4
scalar RSUExampleScenario.node[50].veinsmobility 	minSpeed 	0.25784342752933
scalar RSUExampleScenario.node[50].veinsmobility 	maxSpeed 	13.999976908737
scalar RSUExampleScenario.node[50].veinsmobility 	totalDistance 	3414.017260365
scalar RSUExampleScenario.node[50].veinsmobility 	totalCO2Emission 	703.10783141793
scalar RSUExampleScenario.node[51].veinsmobility 	startTime 	153.1
scalar RSUExampleScenario.node[51].veinsmobility 	totalTime 	282
scalar RSUExampleScenario.node[51].veinsmobility 	stopTime 	435.2
scalar RSUExampleScenario.node[51].veinsmobility 	minSpeed 	0.25656090633222
scalar RSUExampleScenario.node[51].veinsmobility 	maxSpeed 	13.999940110042
scalar RSUExampleScenario.node[51].veinsmobility 	totalDistance 	3410.0360835713
scalar RSUExampleScenario.node[51].veinsmobility 	totalCO2Emission 	703.56457401679
scalar RSUExampleScenario.node[52].veinsmobility 	startTime 	156.1
scalar RSUExampleScenario.node[52].veinsmobility 	totalTime 	282.7
scalar RSUExampleScenario.node[52].veinsmobility 	stopTime 	438.9
scalar RSUExampleScenario.node[52].veinsmobility 	minSpeed 	0.25867551768874
scalar RSUExampleScenario.node[52].veinsmobility 	maxSpeed 	13.999959708622
scalar RSUExampleScenario.node[52].veinsmobility 	totalDistance 	3413.8022093278
scalar RSUExampleScenario.node[52].veinsmobility 	totalCO2Emission 	706.73965408226
scalar RSUExampleScenario.node[53].veinsmobility 	startTime 	159.1
scalar RSUExampleScenario.node[53].veinsmobility 	totalTime 	283.3
scalar RSUExampleScenario.node[53].veinsmobility 	stopTime 	442.5
scalar RSUExampleScenario.node[53].veinsmobility 	minSpeed 	0.25554935400747
scalar RSUExampleScenario.node[53].veinsmobility 	maxSpeed 	13.999934615768
scalar RSUExampleScenario.node[53].veinsmobility 	totalDistance 	3409.6434186132
scalar RSUExampleScenario.node[53].veinsmobility 	totalCO2Emission 	708.17929318931
scalar RSUExampleScenario.node[54].veinsmobility 	startTime 	162.1
scalar RSUExampleScenario.node[54].veinsmobility 	totalTime 	284
scalar RSUExampleScenario.node[54].veinsmobility 	stopTime 	446.2
scalar RSUExampleScenario.node[54].veinsmobility 	minSpeed 	0.24810979654267
scalar RSUExampleScenario.node[54].veinsmobility 	maxSpeed 	13.999757854708
scalar RSUExampleScenario.node[54].veinsmobility 	totalDistance 	3414.0982756072
scalar RSUExampleScenario.node[54].veinsmobility 	totalCO2Emission 	704.68671516056
scalar RSUExampleScenario.node[55].veinsmobility 	startTime 	165.1
scalar RSUExampleScenario.node[55].veinsmobility 	totalTime 	284.7
scalar RSUExampleScenario.node[55].veinsmobility 	stopTime 	449.9
scalar RSUExampleScenario.node[55].veinsmobility 	minSpeed 	0.24814842336602
scalar RSUExampleScenario.node[55].veinsmobility 	maxSpeed 	13.999974335111
scalar RSUExampleScenario.node[55].veinsmobility 	totalDistance 	3409.7258730876
scalar RSUExampleScenario.node[55].veinsmobility 	totalCO2Emission 	706.56828823948
scalar RSUExampleScenario.node[56].veinsmobility 	startTime 	168.1
scalar RSUExampleScenario.node[56].veinsmobility 	totalTime 	285.5
scalar RSUExampleScenario.node[56].veinsmobility 	stopTime 	453.7
scalar RSUExampleScenario.node[56].veinsmobility 	minSpeed 	0.25649448235217
scalar RSUExampleScenario.node[56].veinsmobility 	maxSpeed 	13.999984819214
scalar RSUExampleScenario.node[56].veinsmobility 	totalDistance 	3414.2217333836
scalar RSUExampleScenario.node[56].veinsmobility 	totalCO2Emission 	706.80562261299
scalar RSUExampleScenario.node[57].veinsmobility 	startTime 	171.1
scalar RSUExampleScenario.node[57].veinsmobility 	totalTime 	286.2
scalar RSUExampleScenario.node[57].veinsmobility 	stopTime 	457.4
scalar RSUExampleScenario.node[57].veinsmobility 	minSpeed 	0.25634990069037
scalar RSUExampleScenario.node[57].veinsmobility 	maxSpeed 	13.999906602385
scalar RSUExampleScenario.node[57].veinsmobility 	totalDistance 	3409.656918823
scalar RSUExampleScenario.node[57].veinsmobility 	totalCO2Emission 	703.68449728996
scalar RSUExampleScenario.node[58].veinsmobility 	startTime 	174.1
scalar RSUExampleScenario.node[58].veinsmobility 	totalTime 	286.9
scalar RSUExampleScenario.node[58].veinsmobility 	stopTime 	461.1
scalar RSUExampleScenario.node[58].veinsmobility 	minSpeed 	0.25438852691557
scalar RSUExampleScenario.node[58].veinsmobility 	maxSpeed 	13.999914554632
scalar RSUExampleScenario.node[58].veinsmobility 	totalDistance 	3413.9217738341
scalar RSUExampleScenario.node[58].veinsmobility 	totalCO2Emission 	706.47139700026
scalar RSUExampleScenario.node[59].veinsmobility 	startTime 	177.1
scalar RSUExampleScenario.node[59].veinsmobility 	totalTime 	287.6
scalar RSUExampleScenario.node[59].veinsmobility 	stopTime 	464.8
scalar RSUExampleScenario.node[59].veinsmobility 	minSpeed 	0.25081884874264
scalar RSUExampleScenario.node[59].veinsmobility 	maxSpeed 	13.999860018657
scalar RSUExampleScenario.node[59].veinsmobility 	totalDistance 	3409.554822261
scalar RSUExampleScenario.node[59].veinsmobility 	totalCO2Emission 	709.78244315004
scalar RSUExampleScenario.node[60].veinsmobility 	startTime 	180.1
scalar RSUExampleScenario.node[60].veinsmobility 	totalTime 	288.3
scalar RSUExampleScenario.node[60].veinsmobility 	stopTime 	468.5
scalar RSUExampleScenario.node[60].veinsmobility 	minSpeed 	0.25894717751862
scalar RSUExampleScenario.node[60].veinsmobility 	maxSpeed 	13.999965812706
scalar RSUExampleScenario.node[60].veinsmobility 	totalDistance 	3413.9029107332
scalar RSUExampleScenario.node[60].veinsmobility 	totalCO2Emission 	711.05381924817
scalar RSUExampleScenario.node[61].veinsmobility 	startTime 	183.1
scalar RSUExampleScenario.node[61].veinsmobility 	totalTime 	289
scalar RSUExampleScenario.node[61].veinsmobility 	stopTime 	472.2
scalar RSUExampleScenario.node[61].veinsmobility 	minSpeed 	0.24895663652965
scalar RSUExampleScenario.node[61].veinsmobility 	maxSpeed 	13.999993596415
scalar RSUExampleScenario.node[61].veinsmobility 	totalDistance 	3410.0300246799
scalar RSUExampleScenario.node[61].veinsmobility 	totalCO2Emission 	708.57813615946
scalar RSUExampleScenario.node[62].veinsmobility 	startTime 	186.1
scalar RSUExampleScenario.node[62].veinsmobility 	totalTime 	289.6
scalar RSUExampleScenario.node[62].veinsmobility 	stopTime 	475.8
scalar RSUExampleScenario.node[62].veinsmobility 	minSpeed 	0.25447581661446
scalar RSUExampleScenario.node[62].veinsmobility 	maxSpeed 	13.999995281009
scalar RSUExampleScenario.node[62].veinsmobility 	totalDistance 	3413.4990572036
scalar RSUExampleScenario.node[62].veinsmobility 	totalCO2Emission 	708.23030625633
scalar RSUExampleScenario.node[63].veinsmobility 	startTime 	189.1
scalar RSUExampleScenario.node[63].veinsmobility 	totalTime 	290.4
scalar RSUExampleScenario.node[63].veinsmobility 	stopTime 	479.6
scalar RSUExampleScenario.node[63].veinsmobility 	minSpeed 	0.24971250756574
scalar RSUExampleScenario.node[63].veinsmobility 	maxSpeed 	13.99985447783
scalar RSUExampleScenario.node[63].veinsmobility 	totalDistance 	3409.8597717748
scalar RSUExampleScenario.node[63].veinsmobility 	totalCO2Emission 	711.80095763664
scalar RSUExampleScenario.node[64].veinsmobility 	startTime 	192.1
scalar RSUExampleScenario.node[64].veinsmobility 	totalTime 	291.1
scalar RSUExampleScenario.node[64].veinsmobility 	stopTime 	483.3
scalar RSUExampleScenario.node[64].veinsmobility 	minSpeed 	0.25679228167329
scalar RSUExampleScenario.node[64].veinsmobility 	maxSpeed 	13.999835466056
scalar RSUExampleScenario.node[64].veinsmobility 	totalDistance 	3409.538561273
scalar RSUExampleScenario.node[64].veinsmobility 	totalCO2Emission 	712.86882462496
scalar RSUExampleScenario.node[65].veinsmobility 	startTime 	195.1
scalar RSUExampleScenario.node[65].veinsmobility 	totalTime 	291.9
scalar RSUExampleScenario.node[65].veinsmobility 	stopTime 	487.1
scalar RSUExampleScenario.node[65].veinsmobility 	minSpeed 	0.2545190022774
scalar RSUExampleScenario.node[65].veinsmobility 	maxSpeed 	13.999817901605
scalar RSUExampleScenario.node[65].veinsmobility 	totalDistance 	3414.2343621094
scalar RSUExampleScenario.node[65].veinsmobility 	totalCO2Emission 	712.41324948012
scalar RSUExampleScenario.node[66].veinsmobility 	startTime 	198.1
scalar RSUExampleScenario.node[66].veinsmobility 	totalTime 	292.6
scalar RSUExampleScenario.node[66].veinsmobility 	stopTime 	490.8
scalar RSUExampleScenario.node[66].veinsmobility 	minSpeed 	0.25460808964935
scalar RSUExampleScenario.node[66].veinsmobility 	maxSpeed 	13.999976062414
scalar RSUExampleScenario.node[66].veinsmobility 	totalDistance 	3409.5617496282
scalar RSUExampleScenario.node[66].veinsmobility 	totalCO2Emission 	712.77172117811
scalar RSUExampleScenario.node[67].veinsmobility 	startTime 	201.1
scalar RSUExampleScenario.node[67].veinsmobility 	totalTime 	293.3
scalar RSUExampleScenario.node[67].veinsmobility 	stopTime 	494.5
scalar RSUExampleScenario.node[67].veinsmobility 	minSpeed 	0.24854600198218
scalar RSUExampleScenario.node[67].veinsmobility 	maxSpeed 	13.999993055859
scalar RSUExampleScenario.node[67].veinsmobility 	totalDistance 	3414.0418812116
scalar RSUExampleScenario.node[67].veinsmobility 	totalCO2Emission 	716.2052123905
scalar RSUExampleScenario.node[68].veinsmobility 	startTime 	204.1
scalar RSUExampleScenario.node[68].veinsmobility 	totalTime 	294
scalar RSUExampleScenario.node[68].veinsmobility 	stopTime 	498.2
scalar RSUExampleScenario.node[68].veinsmobility 	minSpeed 	0.25972361441772
scalar RSUExampleScenario.node[68].veinsmobility 	maxSpeed 	13.999983443746
scalar RSUExampleScenario.node[68].veinsmobility 	totalDistance 	3410.0097234767
scalar RSUExampleScenario.node[68].veinsmobility 	totalCO2Emission 	720.09266101799
scalar RSUExampleScenario.node[69].veinsmobility 	startTime 	207.1
scalar RSUExampleScenario.node[69].veinsmobility 	totalTime 	294.7
scalar RSUExampleScenario.node[69].veinsmobility 	stopTime 	501.9
scalar RSUExampleScenario.node[69].veinsmobility 	minSpeed 	0.257122103489
scalar RSUExampleScenario.node[69].veinsmobility 	maxSpeed 	13.999897358392
scalar RSUExampleScenario.node[69].veinsmobility 	totalDistance 	3414.2414717909
scalar RSUExampleScenario.node[69].veinsmobility 	totalCO2Emission 	715.29327822428
scalar RSUExampleScenario.node[70].veinsmobility 	startTime 	210.1
scalar RSUExampleScenario.node[70].veinsmobility 	totalTime 	295.3
scalar RSUExampleScenario.node[70].veinsmobility 	stopTime 	505.5
scalar RSUExampleScenario.node[70].veinsmobility 	minSpeed 	0.25260818461934
scalar RSUExampleScenario.node[70].veinsmobility 	maxSpeed 	13.999812511604
scalar RSUExampleScenario.node[70].veinsmobility 	totalDistance 	3409.5443959785
scalar RSUExampleScenario.node[70].veinsmobility 	totalCO2Emission 	715.26429312191
scalar RSUExampleScenario.node[71].veinsmobility 	startTime 	213.1
scalar RSUExampleScenario.node[71].veinsmobility 	totalTime 	296
scalar RSUExampleScenario.node[71].veinsmobility 	stopTime 	509.2
scalar RSUExampleScenario.node[71].veinsmobility 	minSpeed 	0.25189670662093
scalar RSUExampleScenario.node[71].veinsmobility 	maxSpeed 	13.999994338041
scalar RSUExampleScenario.node[71].veinsmobility 	totalDistance 	3413.6801468898
scalar RSUExampleScenario.node[71].veinsmobility 	totalCO2Emission 	719.62658174592
scalar RSUExampleScenario.node[72].veinsmobility 	startTime 	216.1
scalar RSUExampleScenario.node[72].veinsmobility 	totalTime 	296.7
scalar RSUExampleScenario.node[72].veinsmobility 	stopTime 	512.9
scalar RSUExampleScenario.node[72].veinsmobility 	minSpeed 	0.25534082647809
scalar RSUExampleScenario.node[72].veinsmobility 	maxSpeed 	13.999958969629
scalar RSUExampleScenario.node[72].veinsmobility 	totalDistance 	3410.1462968941
scalar RSUExampleScenario.node[72].veinsmobility 	totalCO2Emission 	718.22126809388
scalar RSUExampleScenario.node[73].veinsmobility 	startTime 	219.1
scalar RSUExampleScenario.node[73].veinsmobility 	totalTime 	297.3
scalar RSUExampleScenario.node[73].veinsmobility 	stopTime 	516.5
scalar RSUExampleScenario.node[73].veinsmobility 	minSpeed 	0.25088378861989
scalar RSUExampleScenario.node[73].veinsmobility 	maxSpeed 	13.999951218755
scalar RSUExampleScenario.node[73].veinsmobility 	totalDistance 	3413.7692689208
scalar RSUExampleScenario.node[73].veinsmobility 	totalCO2Emission 	719.39363651234
scalar RSUExampleScenario.node[74].veinsmobility 	startTime 	222.1
scalar RSUExampleScenario.node[74].veinsmobility 	totalTime 	297.9
scalar RSUExampleScenario.node[74].veinsmobility 	stopTime 	520.1
scalar RSUExampleScenario.node[74].veinsmobility 	minSpeed 	0.25944614192424
scalar RSUExampleScenario.node[74].veinsmobility 	maxSpeed 	13.999971367305
scalar RSUExampleScenario.node[74].veinsmobility 	totalDistance 	3409.7877976417
scalar RSUExampleScenario.node[74].veinsmobility 	totalCO2Emission 	721.14858222262
scalar RSUExampleScenario.node[75].veinsmobility 	startTime 	225.1
scalar RSUExampleScenario.node[75].veinsmobility 	totalTime 	298.5
scalar RSUExampleScenario.node[75].veinsmobility 	stopTime 	523.7
scalar RSUExampleScenario.node[75].veinsmobility 	minSpeed 	0.25518603322795
scalar RSUExampleScenario.node[75].veinsmobility 	maxSpeed 	13.999948194288
scalar RSUExampleScenario.node[75].veinsmobility 	totalDistance 	3413.5263242572
scalar RSUExampleScenario.node[75].veinsmobility 	totalCO2Emission 	723.22434154934
scalar RSUExampleScenario.node[76].veinsmobility 	startTime 	228.1
scalar RSUExampleScenario.node[76].veinsmobility 	totalTime 	299.1
scalar RSUExampleScenario.node[76].veinsmobility 	stopTime 	527.3
scalar RSUExampleScenario.node[76].veinsmobility 	minSpeed 	0.25538075818145
scalar RSUExampleScenario.node[76].veinsmobility 	maxSpeed 	13.999986817506
scalar RSUExampleScenario.node[76].veinsmobility 	totalDistance 	3409.3889177371
scalar RSUExampleScenario.node[76].veinsmobility 	totalCO2Emission 	721.00034820029
scalar RSUExampleScenario.node[77].veinsmobility 	startTime 	231.1
scalar RSUExampleScenario.node[77].veinsmobility 	totalTime 	299.8
scalar RSUExampleScenario.node[77].veinsmobility 	stopTime 	531
scalar RSUExampleScenario.node[77].veinsmobility 	minSpeed 	0.25131239917758
scalar RSUExampleScenario.node[77].veinsmobility 	maxSpeed 	13.999777624363
scalar RSUExampleScenario.node[77].veinsmobility 	totalDistance 	3413.9444492647
scalar RSUExampleScenario.node[77].veinsmobility 	totalCO2Emission 	721.06433788965
scalar RSUExampleScenario.node[78].veinsmobility 	startTime 	234.1
scalar RSUExampleScenario.node[78].veinsmobility 	totalTime 	300.5
scalar RSUExampleScenario.node[78].veinsmobility 	stopTime 	534.7
scalar RSUExampleScenario.node[78].veinsmobility 	minSpeed 	0.25492380631831
scalar RSUExampleScenario.node[78].veinsmobility 	maxSpeed 	13.999938116502
scalar RSUExampleScenario.node[78].veinsmobility 	totalDistance 	3409.9700073883
scalar RSUExampleScenario.node[78].veinsmobility 	totalCO2Emission 	719.08525270008
scalar RSUExampleScenario.node[79].veinsmobility 	startTime 	237.1
scalar RSUExampleScenario.node[79].veinsmobility 	totalTime 	301.1
scalar RSUExampleScenario.node[79].veinsmobility 	stopTime 	538.3
scalar RSUExampleScenario.node[79].veinsmobility 	minSpeed 	0.24967920806189
scalar RSUExampleScenario.node[79].veinsmobility 	maxSpeed 	13.999928580543
scalar RSUExampleScenario.node[79].veinsmobility 	totalDistance 	3413.5782469477
scalar RSUExampleScenario.node[79].veinsmobility 	totalCO2Emission 	723.66064683749
scalar RSUExampleScenario.node[80].veinsmobility 	startTime 	240.1
scalar RSUExampleScenario.node[80].veinsmobility 	totalTime 	301.8
scalar RSUExampleScenario.node[80].veinsmobility 	stopTime 	542
scalar RSUExampleScenario.node[80].veinsmobility 	minSpeed 	0.24878343579918
scalar RSUExampleScenario.node[80].veinsmobility 	maxSpeed 	13.999975422549
scalar RSUExampleScenario.node[80].veinsmobility 	totalDistance 	3409.887848242
scalar RSUExampleScenario.node[80].veinsmobility 	totalCO2Emission 	726.67077290826
scalar RSUExampleScenario.node[81].veinsmobility 	startTime 	243.1
scalar RSUExampleScenario.node[81].veinsmobility 	totalTime 	302.5
scalar RSUExampleScenario.node[81].veinsmobility 	stopTime 	545.7
scalar RSUExampleScenario.node[81].veinsmobility 	minSpeed 	0.24862055806443
scalar RSUExampleScenario.node[81].veinsmobility 	maxSpeed 	13.999978383605
scalar RSUExampleScenario.node[81].veinsmobility 	totalDistance 	3414.0851393814
scalar RSUExampleScenario.node[81].veinsmobility 	totalCO2Emission 	723.47518600039
scalar RSUExampleScenario.node[82].veinsmobility 	startTime 	246.1
scalar RSUExampleScenario.node[82].veinsmobility 	totalTime 	303.2
scalar RSUExampleScenario.node[82].veinsmobility 	stopTime 	549.4
scalar RSUExampleScenario.node[82].veinsmobility 	minSpeed 	0.25705349261081
scalar RSUExampleScenario.node[82].veinsmobility 	maxSpeed 	13.999992762471
scalar RSUExampleScenario.node[82].veinsmobility 	totalDistance 	3409.8114061729
scalar RSUExampleScenario.node[82].veinsmobility 	totalCO2Emission 	728.7814383129
scalar RSUExampleScenario.node[83].veinsmobility 	startTime 	249.1
scalar RSUExampleScenario.node[83].veinsmobility 	totalTime 	303.9
scalar RSUExampleScenario.node[83].veinsmobility 	stopTime 	553.1
scalar RSUExampleScenario.node[83].veinsmobility 	minSpeed 	0.25904251642479
scalar RSUExampleScenario.node[83].veinsmobility 	maxSpeed 	13.999948908824
scalar RSUExampleScenario.node[83].veinsmobility 	totalDistance 	3413.7339704111
scalar RSUExampleScenario.node[83].veinsmobility 	totalCO2Emission 	725.6301123583
scalar RSUExampleScenario.node[84].veinsmobility 	startTime 	252.1
scalar RSUExampleScenario.node[84].veinsmobility 	totalTime 	304.6
scalar RSUExampleScenario.node[84].veinsmobility 	stopTime 	556.8
scalar RSUExampleScenario.node[84].veinsmobility 	minSpeed 	0.25634994198801
scalar RSUExampleScenario.node[84].veinsmobility 	maxSpeed 	13.99992966786
scalar RSUExampleScenario.node[84].veinsmobility 	totalDistance 	3410.0362201596
scalar RSUExampleScenario.node[84].veinsmobility 	totalCO2Emission 	722.86767447377
scalar RSUExampleScenario.node[85].veinsmobility 	startTime 	255.1
scalar RSUExampleScenario.node[85].veinsmobility 	totalTime 	305.3
scalar RSUExampleScenario.node[85].veinsmobility 	stopTime 	560.5
scalar RSUExampleScenario.node[85].veinsmobility 	minSpeed 	0.24830947492435
scalar RSUExampleScenario.node[85].veinsmobility 	maxSpeed 	13.999829034563
scalar RSUExampleScenario.node[85].veinsmobility 	totalDistance 	3413.8295050051
scalar RSUExampleScenario.node[85].veinsmobility 	totalCO2Emission 	728.36367609923
scalar RSUExampleScenario.node[86].veinsmobility 	startTime 	258.1
scalar RSUExampleScenario.node[86].veinsmobility 	totalTime 	306
scalar RSUExampleScenario.node[86].veinsmobility 	stopTime 	564.2
scalar RSUExampleScenario.node[86].veinsmobility 	minSpeed 	0.25346357050212
scalar RSUExampleScenario.node[86].veinsmobility 	maxSpeed 	13.999977841808
scalar RSUExampleScenario.node[86].veinsmobility 	totalDistance 	3409.9892177072
scalar RSUExampleScenario.node[86].veinsmobility 	totalCO2Emission 	724.16665635365
scalar RSUExampleScenario.node[87].veinsmobility 	startTime 	261.1
scalar RSUExampleScenario.node[87].veinsmobility 	totalTime 	306.7
scalar RSUExampleScenario.node[87].veinsmobility 	stopTime 	567.9
scalar RSUExampleScenario.node[87].veinsmobility 	minSpeed 	0.25142842087196
scalar RSUExampleScenario.node[87].veinsmobility 	maxSpeed 	13.999900157212
scalar RSUExampleScenario.node[87].veinsmobility 	totalDistance 	3413.6525736255
scalar RSUExampleScenario.node[87].veinsmobility 	totalCO2Emission 	725.65418698597
scalar RSUExampleScenario.node[88].veinsmobility 	startTime 	264.1
scalar RSUExampleScenario.node[88].veinsmobility 	totalTime 	307.4
scalar RSUExampleScenario.node[88].veinsmobility 	stopTime 	571.6
scalar RSUExampleScenario.node[88].veinsmobility 	minSpeed 	0.25639584530122
scalar RSUExampleScenario.node[88].veinsmobility 	maxSpeed 	13.999772373231
scalar RSUExampleScenario.node[88].veinsmobility 	totalDistance 	3409.8481268349
scalar RSUExampleScenario.node[88].veinsmobility 	totalCO2Emission 	730.43235042722
scalar RSUExampleScenario.node[89].veinsmobility 	startTime 	267.1
scalar RSUExampleScenario.node[89].veinsmobility 	totalTime 	308.2
scalar RSUExampleScenario.node[89].veinsmobility 	stopTime 	575.4
scalar RSUExampleScenario.node[89].veinsmobility 	minSpeed 	0.25771472574119
scalar RSUExampleScenario.node[89].veinsmobility 	maxSpeed 	13.999987676269
scalar RSUExampleScenario.node[89].veinsmobility 	totalDistance 	3414.3363742207
scalar RSUExampleScenario.node[89].veinsmobility 	totalCO2Emission 	731.29753371118
scalar RSUExampleScenario.node[90].veinsmobility 	startTime 	270.1
scalar RSUExampleScenario.node[90].veinsmobility 	totalTime 	308.9
scalar RSUExampleScenario.node[90].veinsmobility 	stopTime 	579.1
scalar RSUExampleScenario.node[90].veinsmobility 	minSpeed 	0.2579025421394
scalar RSUExampleScenario.node[90].veinsmobility 	maxSpeed 	13.999982504318
scalar RSUExampleScenario.node[90].veinsmobility 	totalDistance 	3410.0414204154
scalar RSUExampleScenario.node[90].veinsmobility 	totalCO2Emission 	732.87013617372
scalar RSUExampleScenario.node[91].veinsmobility 	startTime 	273.1
scalar RSUExampleScenario.node[91].veinsmobility 	totalTime 	309.7
scalar RSUExampleScenario.node[91].veinsmobility 	stopTime 	582.9
scalar RSUExampleScenario.node[91].veinsmobility 	minSpeed 	0.24938265008526
scalar RSUExampleScenario.node[91].veinsmobility 	maxSpeed 	13.999993323307
scalar RSUExampleScenario.node[91].veinsmobility 	totalDistance 	3414.0646015645
scalar RSUExampleScenario.node[91].veinsmobility 	totalCO2Emission 	731.7440045246
scalar RSUExampleScenario.node[92].veinsmobility 	startTime 	276.1
scalar RSUExampleScenario.node[92].veinsmobility 	totalTime 	310.4
scalar RSUExampleScenario.node[92].veinsmobility 	stopTime 	586.6
scalar RSUExampleScenario.node[92].veinsmobility 	minSpeed 	0.25600847127545
scalar RSUExampleScenario.node[92].veinsmobility 	maxSpeed 	13.999849219464
scalar RSUExampleScenario.node[92].veinsmobility 	totalDistance 	3409.9085991275
scalar RSUExampleScenario.node[92].veinsmobility 	totalCO2Emission 	733.48096497977
scalar RSUExampleScenario.node[93].veinsmobility 	startTime 	279.1
scalar RSUExampleScenario.node[93].veinsmobility 	totalTime 	311.1
scalar RSUExampleScenario.node[93].veinsmobility 	stopTime 	590.3
scalar RSUExampleScenario.node[93].veinsmobility 	minSpeed 	0.24977756212233
scalar RSUExampleScenario.node[93].veinsmobility 	maxSpeed 	13.999976627971
scalar RSUExampleScenario.node[93].veinsmobility 	totalDistance 	3413.7871329245
scalar RSUExampleScenario.node[93].veinsmobility 	totalCO2Emission 	734.70287019066
scalar RSUExampleScenario.node[94].veinsmobility 	startTime 	282.1
scalar RSUExampleScenario.node[94].veinsmobility 	totalTime 	311.8
scalar RSUExampleScenario.node[94].veinsmobility 	stopTime 	594
scalar RSUExampleScenario.node[94].veinsmobility 	minSpeed 	0.24833123109397
scalar RSUExampleScenario.node[94].veinsmobility 	maxSpeed 	13.999991394812
scalar RSUExampleScenario.node[94].veinsmobility 	totalDistance 	3409.9055091375
scalar RSUExampleScenario.node[94].veinsmobility 	totalCO2Emission 	735.19806828078
scalar RSUExampleScenario.node[95].veinsmobility 	startTime 	285.1
scalar RSUExampleScenario.node[95].veinsmobility 	totalTime 	312.5
scalar RSUExampleScenario.node[95].veinsmobility 	stopTime 	597.7
scalar RSUExampleScenario.node[95].veinsmobility 	minSpeed 	0.25823203349533
scalar RSUExampleScenario.node[95].veinsmobility 	maxSpeed 	13.99988145178
scalar RSUExampleScenario.node[95].veinsmobility 	totalDistance 	3413.6336035247
scalar RSUExampleScenario.node[95].veinsmobility 	totalCO2Emission 	734.00348989747
scalar RSUExampleScenario.node[96].veinsmobility 	startTime 	288.1
scalar RSUExampleScenario.node[96].veinsmobility 	totalTime 	313.1
scalar RSUExampleScenario.node[96].veinsmobility 	stopTime 	601.3
scalar RSUExampleScenario.node[96].veinsmobility 	minSpeed 	0.25118288743333
scalar RSUExampleScenario.node[96].veinsmobility 	maxSpeed 	13.99984102244
scalar RSUExampleScenario.node[96].veinsmobility 	totalDistance 	3409.4696976792
scalar RSUExampleScenario.node[96].veinsmobility 	totalCO2Emission 	736.66774624331
scalar RSUExampleScenario.node[97].veinsmobility 	startTime 	291.1
scalar RSUExampleScenario.node[97].veinsmobility 	totalTime 	313.8
scalar RSUExampleScenario.node[97].veinsmobility 	stopTime 	605
scalar RSUExampleScenario.node[97].veinsmobility 	minSpeed 	0.2478000631216
scalar RSUExampleScenario.node[97].veinsmobility 	maxSpeed 	13.999944972564
scalar RSUExampleScenario.node[97].veinsmobility 	totalDistance 	3413.7447640517
scalar RSUExampleScenario.node[97].veinsmobility 	totalCO2Emission 	737.43843067426
scalar RSUExampleScenario.node[98].veinsmobility 	startTime 	294.1
scalar RSUExampleScenario.node[98].veinsmobility 	totalTime 	314.5
scalar RSUExampleScenario.node[98].veinsmobility 	stopTime 	608.7
scalar RSUExampleScenario.node[98].veinsmobility 	minSpeed 	0.25794179689628
scalar RSUExampleScenario.node[98].veinsmobility 	maxSpeed 	13.999945104048
scalar RSUExampleScenario.node[98].veinsmobility 	totalDistance 	3409.8485377199
scalar RSUExampleScenario.node[98].veinsmobility 	totalCO2Emission 	734.98626440247
scalar RSUExampleScenario.node[99].veinsmobility 	startTime 	297.1
scalar RSUExampleScenario.node[99].veinsmobility 	totalTime 	315.2
scalar RSUExampleScenario.node[99].veinsmobility 	stopTime 	612.4
scalar RSUExampleScenario.node[99].veinsmobility 	minSpeed 	0.24873786557
scalar RSUExampleScenario.node[99].veinsmobility 	maxSpeed 	13.999701311693
scalar RSUExampleScenario.node[99].veinsmobility 	totalDistance 	3413.7188979859
scalar RSUExampleScenario.node[99].veinsmobility 	totalCO2Emission 	740.34997352975
scalar RSUExampleScenario.node[100].veinsmobility 	startTime 	300.1
scalar RSUExampleScenario.node[100].veinsmobility 	totalTime 	315.9
scalar RSUExampleScenario.node[100].veinsmobility 	stopTime 	616.1
scalar RSUExampleScenario.node[100].veinsmobility 	minSpeed 	0.24984677700116
scalar RSUExampleScenario.node[100].veinsmobility 	maxSpeed 	13.999876808247
scalar RSUExampleScenario.node[100].veinsmobility 	totalDistance 	3409.6011359065
scalar RSUExampleScenario.node[100].veinsmobility 	totalCO2Emission 	738.92944311115
scalar RSUExampleScenario.node[101].veinsmobility 	startTime 	303.1
scalar RSUExampleScenario.node[101].veinsmobility 	totalTime 	316.6
scalar RSUExampleScenario.node[101].veinsmobility 	stopTime 	619.8
scalar RSUExampleScenario.node[101].veinsmobility 	minSpeed 	0.25756520687183
scalar RSUExampleScenario.node[101].veinsmobility 	maxSpeed 	13.999857166293
scalar RSUExampleScenario.node[101].veinsmobility 	totalDistance 	3414.1224031911
scalar RSUExampleScenario.node[101].veinsmobility 	totalCO2Emission 	736.74733403769
scalar RSUExampleScenario.node[102].veinsmobility 	startTime 	306.1
scalar RSUExampleScenario.node[102].veinsmobility 	totalTime 	317.4
scalar RSUExampleScenario.node[102].veinsmobility 	stopTime 	623.6
scalar RSUExampleScenario.node[102].veinsmobility 	minSpeed 	0.24815969175799
scalar RSUExampleScenario.node[102].veinsmobility 	maxSpeed 	13.999984154317
scalar RSUExampleScenario.node[102].veinsmobility 	totalDistance 	3409.8996307634
scalar RSUExampleScenario.node[102].veinsmobility 	totalCO2Emission 	739.50548606094
scalar RSUExampleScenario.node[103].veinsmobility 	startTime 	309.1
scalar RSUExampleScenario.node[103].veinsmobility 	totalTime 	318.1
scalar RSUExampleScenario.node[103].veinsmobility 	stopTime 	627.3
scalar RSUExampleScenario.node[103].veinsmobility 	minSpeed 	0.24988533416577
scalar RSUExampleScenario.node[103].veinsmobility 	maxSpeed 	13.999973898889
scalar RSUExampleScenario.node[103].veinsmobility 	totalDistance 	3413.5522579564
scalar RSUExampleScenario.node[103].veinsmobility 	totalCO2Emission 	740.90473161344
scalar RSUExampleScenario.node[104].veinsmobility 	startTime 	312.1
scalar RSUExampleScenario.node[104].veinsmobility 	totalTime 	318.9
scalar RSUExampleScenario.node[104].veinsmobility 	stopTime 	631.1
scalar RSUExampleScenario.node[104].veinsmobility 	minSpeed 	0.25412720243679
scalar RSUExampleScenario.node[104].veinsmobility 	maxSpeed 	13.999819870386
scalar RSUExampleScenario.node[104].veinsmobility 	totalDistance 	3410.1704491598
scalar RSUExampleScenario.node[104].veinsmobility 	totalCO2Emission 	741.08068527835
scalar RSUExampleScenario.node[105].veinsmobility 	startTime 	315.1
scalar RSUExampleScenario.node[105].veinsmobility 	totalTime 	319.6
scalar RSUExampleScenario.node[105].veinsmobility 	stopTime 	634.8
scalar RSUExampleScenario.node[105].veinsmobility 	minSpeed 	0.24878131167684
scalar RSUExampleScenario.node[105].veinsmobility 	maxSpeed 	13.999959720639
scalar RSUExampleScenario.node[105].veinsmobility 	totalDistance 	3413.8179377425
scalar RSUExampleScenario.node[105].veinsmobility 	totalCO2Emission 	743.23604559329
scalar RSUExampleScenario.node[106].veinsmobility 	startTime 	318.1
scalar RSUExampleScenario.node[106].veinsmobility 	totalTime 	320.2
scalar RSUExampleScenario.node[106].veinsmobility 	stopTime 	638.4
scalar RSUExampleScenario.node[106].veinsmobility 	minSpeed 	0.25569404946174
scalar RSUExampleScenario.node[106].veinsmobility 	maxSpeed 	13.99997190099
scalar RSUExampleScenario.node[106].veinsmobility 	totalDistance 	3409.7055639275
scalar RSUExampleScenario.node[106].veinsmobility 	totalCO2Emission 	744.74097798238
scalar RSUExampleScenario.node[107].veinsmobility 	startTime 	321.1
scalar RSUExampleScenario.node[107].veinsmobility 	totalTime 	320.8
scalar RSUExampleScenario.node[107].veinsmobility 	stopTime 	642
scalar RSUExampleScenario.node[107].veinsmobility 	minSpeed 	0.25834396101814
scalar RSUExampleScenario.node[107].veinsmobility 	maxSpeed 	13.999874688883
scalar RSUExampleScenario.node[107].veinsmobility 	totalDistance 	3413.5684546252
scalar RSUExampleScenario.node[107].veinsmobility 	totalCO2Emission 	741.9954664159
scalar RSUExampleScenario.node[108].veinsmobility 	startTime 	324.1
scalar RSUExampleScenario.node[108].veinsmobility 	totalTime 	321.4
scalar RSUExampleScenario.node[108].veinsmobility 	stopTime 	645.6
scalar RSUExampleScenario.node[108].veinsmobility 	minSpeed 	0.25258638961893
scalar RSUExampleScenario.node[108].veinsmobility 	maxSpeed 	13.999953672762
scalar RSUExampleScenario.node[108].veinsmobility 	totalDistance 	3409.7485018474
scalar RSUExampleScenario.node[108].veinsmobility 	totalCO2Emission 	742.74173939698
scalar RSUExampleScenario.node[109].veinsmobility 	startTime 	327.1
scalar RSUExampleScenario.node[109].veinsmobility 	totalTime 	322.1
scalar RSUExampleScenario.node[109].veinsmobility 	stopTime 	649.3
scalar RSUExampleScenario.node[109].veinsmobility 	minSpeed 	0.25274065926019
scalar RSUExampleScenario.node[109].veinsmobility 	maxSpeed 	13.999952129852
scalar RSUExampleScenario.node[109].veinsmobility 	totalDistance 	3414.2391930247
scalar RSUExampleScenario.node[109].veinsmobility 	totalCO2Emission 	745.15013775541
scalar RSUExampleScenario.node[110].veinsmobility 	startTime 	330.1
scalar RSUExampleScenario.node[110].veinsmobility 	totalTime 	322.8
scalar RSUExampleScenario.node[110].veinsmobility 	stopTime 	653
scalar RSUExampleScenario.node[110].veinsmobility 	minSpeed 	0.2574959446236
scalar RSUExampleScenario.node[110].veinsmobility 	maxSpeed 	13.999959388659
scalar RSUExampleScenario.node[110].veinsmobility 	totalDistance 	3409.765637268
scalar RSUExampleScenario.node[110].veinsmobility 	totalCO2Emission 	739.60771685063
scalar RSUExampleScenario.node[111].veinsmobility 	startTime 	333.1
scalar RSUExampleScenario.node[111].veinsmobility 	totalTime 	323.5
scalar RSUExampleScenario.node[111].veinsmobility 	stopTime 	656.7
scalar RSUExampleScenario.node[111].veinsmobility 	minSpeed 	0.25389528748416
scalar RSUExampleScenario.node[111].veinsmobility 	maxSpeed 	13.999943316875
scalar RSUExampleScenario.node[111].veinsmobility 	totalDistance 	3413.9938729658
scalar RSUExampleScenario.node[111].veinsmobility 	totalCO2Emission 	746.56541614907
scalar RSUExampleScenario.node[112].veinsmobility 	startTime 	336.1
scalar RSUExampleScenario.node[112].veinsmobility 	totalTime 	324.1
scalar RSUExampleScenario.node[112].veinsmobility 	stopTime 	660.3
scalar RSUExampleScenario.node[112].veinsmobility 	minSpeed 	0.25049197575497
scalar RSUExampleScenario.node[112].veinsmobility 	maxSpeed 	13.999908950485
scalar RSUExampleScenario.node[112].veinsmobility 	totalDistance 	3409.6261400352
scalar RSUExampleScenario.node[112].veinsmobility 	totalCO2Emission 	745.17217939871
scalar RSUExampleScenario.node[113].veinsmobility 	startTime 	339.1
scalar RSUExampleScenario.node[113].veinsmobility 	totalTime 	324.8
scalar RSUExampleScenario.node[113].veinsmobility 	stopTime 	664
scalar RSUExampleScenario.node[113].veinsmobility 	minSpeed 	0.25346224391088
scalar RSUExampleScenario.node[113].veinsmobility 	maxSpeed 	13.999941304235
scalar RSUExampleScenario.node[113].veinsmobility 	totalDistance 	3409.7463619439
scalar RSUExampleScenario.node[113].veinsmobility 	totalCO2Emission 	750.7462735283
scalar RSUExampleScenario.node[114].veinsmobility 	startTime 	342.1
scalar RSUExampleScenario.node[114].veinsmobility 	totalTime 	325.5
scalar RSUExampleScenario.node[114].veinsmobility 	stopTime 	667.7
scalar RSUExampleScenario.node[114].veinsmobility 	minSpeed 	0.25235061242315
scalar RSUExampleScenario.node[114].veinsmobility 	maxSpeed 	13.999913441224
scalar RSUExampleScenario.node[114].veinsmobility 	totalDistance 	3413.8324307274
scalar RSUExampleScenario.node[114].veinsmobility 	totalCO2Emission 	745.36911557153
scalar RSUExampleScenario.node[115].veinsmobility 	startTime 	345.1
scalar RSUExampleScenario.node[115].veinsmobility 	totalTime 	326.1
scalar RSUExampleScenario.node[115].veinsmobility 	stopTime 	671.3
scalar RSUExampleScenario.node[115].veinsmobility 	minSpeed 	0.25515380678163
scalar RSUExampleScenario.node[115].veinsmobility 	maxSpeed 	13.999972048122
scalar RSUExampleScenario.node[115].veinsmobility 	totalDistance 	3409.6673700185
scalar RSUExampleScenario.node[115].veinsmobility 	totalCO2Emission 	748.7054211409
scalar RSUExampleScenario.node[116].veinsmobility 	startTime 	348.1
scalar RSUExampleScenario.node[116].veinsmobility 	totalTime 	326.8
scalar RSUExampleScenario.node[116].veinsmobility 	stopTime 	675
scalar RSUExampleScenario.node[116].veinsmobility 	minSpeed 	0.24896380167874
scalar RSUExampleScenario.node[116].veinsmobility 	maxSpeed 	13.999924714807
scalar RSUExampleScenario.node[116].veinsmobility 	totalDistance 	3414.2505563589
scalar RSUExampleScenario.node[116].veinsmobility 	totalCO2Emission 	752.24756080755
scalar RSUExampleScenario.node[117].veinsmobility 	startTime 	351.1
scalar RSUExampleScenario.node[117].veinsmobility 	totalTime 	327.4
scalar RSUExampleScenario.node[117].veinsmobility 	stopTime 	678.6
scalar RSUExampleScenario.node[117].veinsmobility 	minSpeed 	0.25475876134448
scalar RSUExampleScenario.node[117].veinsmobility 	maxSpeed 	13.999775656611
scalar RSUExampleScenario.node[117].veinsmobility 	totalDistance 	3409.808505828
scalar RSUExampleScenario.node[117].veinsmobility 	totalCO2Emission 	748.57445456771
scalar RSUExampleScenario.node[118].veinsmobility 	startTime 	354.1
scalar RSUExampleScenario.node[118].veinsmobility 	totalTime 	328
scalar RSUExampleScenario.node[118].veinsmobility 	stopTime 	682.2
scalar RSUExampleScenario.node[118].veinsmobility 	minSpeed 	0.25999617124535
scalar RSUExampleScenario.node[118].veinsmobility 	maxSpeed 	13.999994888736
scalar RSUExampleScenario.node[118].veinsmobility 	totalDistance 	3413.5956041193
scalar RSUExampleScenario.node[118].veinsmobility 	totalCO2Emission 	749.1555518323
scalar RSUExampleScenario.node[119].veinsmobility 	startTime 	357.1
scalar RSUExampleScenario.node[119].veinsmobility 	totalTime 	328.7
scalar RSUExampleScenario.node[119].veinsmobility 	stopTime 	685.9
scalar RSUExampleScenario.node[119].veinsmobility 	minSpeed 	0.25762776404433
scalar RSUExampleScenario.node[119].veinsmobility 	maxSpeed 	13.999989926966
scalar RSUExampleScenario.node[119].veinsmobility 	totalDistance 	3409.9388159285
scalar RSUExampleScenario.node[119].veinsmobility 	totalCO2Emission 	750.94871821411
scalar RSUExampleScenario.node[120].veinsmobility 	startTime 	360.1
scalar RSUExampleScenario.node[120].veinsmobility 	totalTime 	329.4
scalar RSUExampleScenario.node[120].veinsmobility 	stopTime 	689.6
scalar RSUExampleScenario.node[120].veinsmobility 	minSpeed 	0.25183207531366
scalar RSUExampleScenario.node[120].veinsmobility 	maxSpeed 	13.999986946296
scalar RSUExampleScenario.node[120].veinsmobility 	totalDistance 	3414.0518457808
scalar RSUExampleScenario.node[120].veinsmobility 	totalCO2Emission 	749.87532919558
scalar RSUExampleScenario.node[121].veinsmobility 	startTime 	363.1
scalar RSUExampleScenario.node[121].veinsmobility 	totalTime 	330.1
scalar RSUExampleScenario.node[121].veinsmobility 	stopTime 	693.3
scalar RSUExampleScenario.node[121].veinsmobility 	minSpeed 	0.25741664450709
scalar RSUExampleScenario.node[121].veinsmobility 	maxSpeed 	13.999781698191
scalar RSUExampleScenario.node[121].veinsmobility 	totalDistance 	3410.1700839639
scalar RSUExampleScenario.node[121].veinsmobility 	totalCO2Emission 	753.10113399283
scalar RSUExampleScenario.node[122].veinsmobility 	startTime 	366.1
scalar RSUExampleScenario.node[122].veinsmobility 	totalTime 	330.7
scalar RSUExampleScenario.node[122].veinsmobility 	stopTime 	696.9
scalar RSUExampleScenario.node[122].veinsmobility 	minSpeed 	0.25055060504214
scalar RSUExampleScenario.node[122].veinsmobility 	maxSpeed 	13.999978862959
scalar RSUExampleScenario.node[122].veinsmobility 	totalDistance 	3413.8771965435
scalar RSUExampleScenario.node[122].veinsmobility 	totalCO2Emission 	753.74644921331
scalar RSUExampleScenario.node[123].veinsmobility 	startTime 	369.1
scalar RSUExampleScenario.node[123].veinsmobility 	totalTime 	331.4
scalar RSUExampleScenario.node[123].veinsmobility 	stopTime 	700.6
scalar RSUExampleScenario.node[123].veinsmobility 	minSpeed 	0.24955906924978
scalar RSUExampleScenario.node[123].veinsmobility 	maxSpeed 	13.999928004635
scalar RSUExampleScenario.node[123].veinsmobility 	totalDistance 	3409.584183543
scalar RSUExampleScenario.node[123].veinsmobility 	totalCO2Emission 	753.28909371788
scalar RSUExampleScenario.node[124].veinsmobility 	startTime 	372.1
scalar RSUExampleScenario.node[124].veinsmobility 	totalTime 	332.2
scalar RSUExampleScenario.node[124].veinsmobility 	stopTime 	704.4
scalar RSUExampleScenario.node[124].veinsmobility 	minSpeed 	0.25066988128936
scalar RSUExampleScenario.node[124].veinsmobility 	maxSpeed 	13.999937250898
scalar RSUExampleScenario.node[124].veinsmobility 	totalDistance 	3414.1908128254
scalar RSUExampleScenario.node[124].veinsmobility 	totalCO2Emission 	751.3683554982
scalar RSUExampleScenario.node[125].veinsmobility 	startTime 	375.1
scalar RSUExampleScenario.node[125].veinsmobility 	totalTime 	332.8
scalar RSUExampleScenario.node[125].veinsmobility 	stopTime 	708
scalar RSUExampleScenario.node[125].veinsmobility 	minSpeed 	0.25433977389289
scalar RSUExampleScenario.node[125].veinsmobility 	maxSpeed 	13.999952101309
scalar RSUExampleScenario.node[125].veinsmobility 	totalDistance 	3409.6348387444
scalar RSUExampleScenario.node[125].veinsmobility 	totalCO2Emission 	755.99945485237
scalar RSUExampleScenario.node[126].veinsmobility 	startTime 	378.1
scalar RSUExampleScenario.node[126].veinsmobility 	totalTime 	333.5
scalar RSUExampleScenario.node[126].veinsmobility 	stopTime 	711.7
scalar RSUExampleScenario.node[126].veinsmobility 	minSpeed 	0.25288687365269
scalar RSUExampleScenario.node[126].veinsmobility 	maxSpeed 	13.999953375985
scalar RSUExampleScenario.node[126].veinsmobility 	totalDistance 	3413.6046220097
scalar RSUExampleScenario.node[126].veinsmobility 	totalCO2Emission 	756.86570057304
scalar RSUExampleScenario.node[127].veinsmobility 	startTime 	381.1
scalar RSUExampleScenario.node[127].veinsmobility 	totalTime 	334.2
scalar RSUExampleScenario.node[127].veinsmobility 	stopTime 	715.4
scalar RSUExampleScenario.node[127].veinsmobility 	minSpeed 	0.24803610888217
scalar RSUExampleScenario.node[127].veinsmobility 	maxSpeed 	13.999996238477
scalar RSUExampleScenario.node[127].veinsmobility 	totalDistance 	3410.1546549058
scalar RSUExampleScenario.node[127].veinsmobility 	totalCO2Emission 	756.1745696646
scalar RSUExampleScenario.node[128].veinsmobility 	startTime 	384.1
scalar RSUExampleScenario.node[128].veinsmobility 	totalTime 	334.9
scalar RSUExampleScenario.node[128].veinsmobility 	stopTime 	719.1
scalar RSUExampleScenario.node[128].veinsmobility 	minSpeed 	0.25116675480083
scalar RSUExampleScenario.node[128].veinsmobility 	maxSpeed 	13.999941477126
scalar RSUExampleScenario.node[128].veinsmobility 	totalDistance 	3414.0625469489
scalar RSUExampleScenario.node[128].veinsmobility 	totalCO2Emission 	757.02637518314
scalar RSUExampleScenario.node[129].veinsmobility 	startTime 	387.1
scalar RSUExampleScenario.node[129].veinsmobility 	totalTime 	335.7
scalar RSUExampleScenario.node[129].veinsmobility 	stopTime 	722.9
scalar RSUExampleScenario.node[129].veinsmobility 	minSpeed 	0.24895293464628
scalar RSUExampleScenario.node[129].veinsmobility 	maxSpeed 	13.999976745048
scalar RSUExampleScenario.node[129].veinsmobility 	totalDistance 	3410.1554139917
scalar RSUExampleScenario.node[129].veinsmobility 	totalCO2Emission 	755.88716165666
scalar RSUExampleScenario.node[130].veinsmobility 	startTime 	390.1
scalar RSUExampleScenario.node[130].veinsmobility 	totalTime 	336.4
scalar RSUExampleScenario.node[130].veinsmobility 	stopTime 	726.6
scalar RSUExampleScenario.node[130].veinsmobility 	minSpeed 	0.25875669420534
scalar RSUExampleScenario.node[130].veinsmobility 	maxSpeed 	13.999990913642
scalar RSUExampleScenario.node[130].veinsmobility 	totalDistance 	3413.9578483899
scalar RSUExampleScenario.node[130].veinsmobility 	totalCO2Emission 	759.39287966064
scalar RSUExampleScenario.node[131].veinsmobility 	startTime 	393.1
scalar RSUExampleScenario.node[131].veinsmobility 	totalTime 	337.1
scalar RSUExampleScenario.node[131].veinsmobility 	stopTime 	730.3
scalar RSUExampleScenario.node[131].veinsmobility 	minSpeed 	0.25076836453052
scalar RSUExampleScenario.node[131].veinsmobility 	maxSpeed 	13.999988582039
scalar RSUExampleScenario.node[131].veinsmobility 	totalDistance 	3410.0923789568
scalar RSUExampleScenario.node[131].veinsmobility 	totalCO2Emission 	756.89094152914
scalar RSUExampleScenario.node[132].veinsmobility 	startTime 	396.1
scalar RSUExampleScenario.node[132].veinsmobility 	totalTime 	337.8
scalar RSUExampleScenario.node[132].veinsmobility 	stopTime 	734
scalar RSUExampleScenario.node[132].veinsmobility 	minSpeed 	0.25688915906171
scalar RSUExampleScenario.node[132].veinsmobility 	maxSpeed 	13.999981155032
scalar RSUExampleScenario.node[132].veinsmobility 	totalDistance 	3414.1669572967
scalar RSUExampleScenario.node[132].veinsmobility 	totalCO2Emission 	757.79432915079
scalar RSUExampleScenario.node[133].veinsmobility 	startTime 	399.1
scalar RSUExampleScenario.node[133].veinsmobility 	totalTime 	338.5
scalar RSUExampleScenario.node[133].veinsmobility 	stopTime 	737.7
scalar RSUExampleScenario.node[133].veinsmobility 	minSpeed 	0.24724982728204
scalar RSUExampleScenario.node[133].veinsmobility 	maxSpeed 	13.999967375987
scalar RSUExampleScenario.node[133].veinsmobility 	totalDistance 	3409.8658644887
scalar RSUExampleScenario.node[133].veinsmobility 	totalCO2Emission 	760.42747522521
scalar RSUExampleScenario.node[134].veinsmobility 	startTime 	402.1
scalar RSUExampleScenario.node[134].veinsmobility 	totalTime 	339.2
scalar RSUExampleScenario.node[134].veinsmobility 	stopTime 	741.4
scalar RSUExampleScenario.node[134].veinsmobility 	minSpeed 	0.256975015959
scalar RSUExampleScenario.node[134].veinsmobility 	maxSpeed 	13.999967275679
scalar RSUExampleScenario.node[134].veinsmobility 	totalDistance 	3413.9302623726
scalar RSUExampleScenario.node[134].veinsmobility 	totalCO2Emission 	757.11292410324
scalar RSUExampleScenario.node[135].veinsmobility 	startTime 	405.1
scalar RSUExampleScenario.node[135].veinsmobility 	totalTime 	339.8
scalar RSUExampleScenario.node[135].veinsmobility 	stopTime 	745
scalar RSUExampleScenario.node[135].veinsmobility 	minSpeed 	0.2513379010132
scalar RSUExampleScenario.node[135].veinsmobility 	maxSpeed 	13.999788754294
scalar RSUExampleScenario.node[135].veinsmobility 	totalDistance 	3409.8058373961
scalar RSUExampleScenario.node[135].veinsmobility 	totalCO2Emission 	761.33380910688
scalar RSUExampleScenario.node[136].veinsmobility 	startTime 	408.1
scalar RSUExampleScenario.node[136].veinsmobility 	totalTime 	340.5
scalar RSUExampleScenario.node[136].veinsmobility 	stopTime 	748.7
scalar RSUExampleScenario.node[136].veinsmobility 	minSpeed 	0.256455616666
scalar RSUExampleScenario.node[136].veinsmobility 	maxSpeed 	13.999905231216
scalar RSUExampleScenario.node[136].veinsmobility 	totalDistance 	3413.745776105
scalar RSUExampleScenario.node[136].veinsmobility 	totalCO2Emission 	761.19687694139
scalar RSUExampleScenario.node[137].veinsmobility 	startTime 	411.1
scalar RSUExampleScenario.node[137].veinsmobility 	totalTime 	341.1
scalar RSUExampleScenario.node[137].veinsmobility 	stopTime 	752.3
scalar RSUExampleScenario.node[137].veinsmobility 	minSpeed 	0.25957598389825
scalar RSUExampleScenario.node[137].veinsmobility 	maxSpeed 	13.999947692838
scalar RSUExampleScenario.node[137].veinsmobility 	totalDistance 	3409.6870014329
scalar RSUExampleScenario.node[137].veinsmobility 	totalCO2Emission 	762.49677955918
scalar RSUExampleScenario.node[138].veinsmobility 	startTime 	414.1
scalar RSUExampleScenario.node[138].veinsmobility 	totalTime 	341.8
scalar RSUExampleScenario.node[138].veinsmobility 	stopTime 	756
scalar RSUExampleScenario.node[138].veinsmobility 	minSpeed 	0.25732425785833
scalar RSUExampleScenario.node[138].veinsmobility 	maxSpeed 	13.999938338457
scalar RSUExampleScenario.node[138].veinsmobility 	totalDistance 	3413.7671061506
scalar RSUExampleScenario.node[138].veinsmobility 	totalCO2Emission 	763.72505587088
scalar RSUExampleScenario.node[139].veinsmobility 	startTime 	417.1
scalar RSUExampleScenario.node[139].veinsmobility 	totalTime 	342.5
scalar RSUExampleScenario.node[139].veinsmobility 	stopTime 	759.7
scalar RSUExampleScenario.node[139].veinsmobility 	minSpeed 	0.25223421924375
scalar RSUExampleScenario.node[139].veinsmobility 	maxSpeed 	13.999930337267
scalar RSUExampleScenario.node[139].veinsmobility 	totalDistance 	3409.7294823614
scalar RSUExampleScenario.node[139].veinsmobility 	totalCO2Emission 	766.4896903333
scalar RSUExampleScenario.node[140].veinsmobility 	startTime 	420.1
scalar RSUExampleScenario.node[140].veinsmobility 	totalTime 	343.1
scalar RSUExampleScenario.node[140].veinsmobility 	stopTime 	763.3
scalar RSUExampleScenario.node[140].veinsmobility 	minSpeed 	0.25701563888928
scalar RSUExampleScenario.node[140].veinsmobility 	maxSpeed 	13.999997410937
scalar RSUExampleScenario.node[140].veinsmobility 	totalDistance 	3413.9794339533
scalar RSUExampleScenario.node[140].veinsmobility 	totalCO2Emission 	768.07113708005
scalar RSUExampleScenario.node[141].veinsmobility 	startTime 	423.1
scalar RSUExampleScenario.node[141].veinsmobility 	totalTime 	343.7
scalar RSUExampleScenario.node[141].veinsmobility 	stopTime 	766.9
scalar RSUExampleScenario.node[141].veinsmobility 	minSpeed 	0.25652535113716
scalar RSUExampleScenario.node[141].veinsmobility 	maxSpeed 	13.999883624264
scalar RSUExampleScenario.node[141].veinsmobility 	totalDistance 	3409.7427413076
scalar RSUExampleScenario.node[141].veinsmobility 	totalCO2Emission 	761.80249146479
scalar RSUExampleScenario.node[142].veinsmobility 	startTime 	426.1
scalar RSUExampleScenario.node[142].veinsmobility 	totalTime 	344.3
scalar RSUExampleScenario.node[142].veinsmobility 	stopTime 	770.5
scalar RSUExampleScenario.node[142].veinsmobility 	minSpeed 	0.25316373175452
scalar RSUExampleScenario.node[142].veinsmobility 	maxSpeed 	13.999697534854
scalar RSUExampleScenario.node[142].veinsmobility 	totalDistance 	3413.9495767532
scalar RSUExampleScenario.node[142].veinsmobility 	totalCO2Emission 	764.03482992782
scalar RSUExampleScenario.node[143].veinsmobility 	startTime 	429.1
scalar RSUExampleScenario.node[143].veinsmobility 	totalTime 	345
scalar RSUExampleScenario.node[143].veinsmobility 	stopTime 	774.2
scalar RSUExampleScenario.node[143].veinsmobility 	minSpeed 	0.24929700488527
scalar RSUExampleScenario.node[143].veinsmobility 	maxSpeed 	13.999995705276
scalar RSUExampleScenario.node[143].veinsmobility 	totalDistance 	3410.2468316576
scalar RSUExampleScenario.node[143].veinsmobility 	totalCO2Emission 	763.61584097131
scalar RSUExampleScenario.node[144].veinsmobility 	startTime 	432.1
scalar RSUExampleScenario.node[144].veinsmobility 	totalTime 	345.7
scalar RSUExampleScenario.node[144].veinsmobility 	stopTime 	777.9
scalar RSUExampleScenario.node[144].veinsmobility 	minSpeed 	0.25553543116176
scalar RSUExampleScenario.node[144].veinsmobility 	maxSpeed 	13.999918078461
scalar RSUExampleScenario.node[144].veinsmobility 	totalDistance 	3414.2194973244
scalar RSUExampleScenario.node[144].veinsmobility 	totalCO2Emission 	766.79984256146
scalar RSUExampleScenario.node[145].veinsmobility 	startTime 	435.1
scalar RSUExampleScenario.node[145].veinsmobility 	totalTime 	346.4
scalar RSUExampleScenario.node[145].veinsmobility 	stopTime 	781.6
scalar RSUExampleScenario.node[145].veinsmobility 	minSpeed 	0.25196583818411
scalar RSUExampleScenario.node[145].veinsmobility 	maxSpeed 	13.999931853178
scalar RSUExampleScenario.node[145].veinsmobility 	totalDistance 	3409.6386710767
scalar RSUExampleScenario.node[145].veinsmobility 	totalCO2Emission 	766.42907274647
scalar RSUExampleScenario.node[146].veinsmobility 	startTime 	438.1
scalar RSUExampleScenario.node[146].veinsmobility 	totalTime 	347.1
scalar RSUExampleScenario.node[146].veinsmobility 	stopTime 	785.3
scalar RSUExampleScenario.node[146].veinsmobility 	minSpeed 	0.24809722499596
scalar RSUExampleScenario.node[146].veinsmobility 	maxSpeed 	13.999995411525
scalar RSUExampleScenario.node[146].veinsmobility 	totalDistance 	3414.2929259243
scalar RSUExampleScenario.node[146].veinsmobility 	totalCO2Emission 	769.57299204239
scalar RSUExampleScenario.node[147].veinsmobility 	startTime 	441.1
scalar RSUExampleScenario.node[147].veinsmobility 	totalTime 	347.8
scalar RSUExampleScenario.node[147].veinsmobility 	stopTime 	789
scalar RSUExampleScenario.node[147].veinsmobility 	minSpeed 	0.25023451706977
scalar RSUExampleScenario.node[147].veinsmobility 	maxSpeed 	13.999956938012
scalar RSUExampleScenario.node[147].veinsmobility 	totalDistance 	3409.8906004421
scalar RSUExampleScenario.node[147].veinsmobility 	totalCO2Emission 	775.56770761886
scalar RSUExampleScenario.node[148].veinsmobility 	startTime 	444.1
scalar RSUExampleScenario.node[148].veinsmobility 	totalTime 	348.6
scalar RSUExampleScenario.node[148].veinsmobility 	stopTime 	792.8
scalar RSUExampleScenario.node[148].veinsmobility 	minSpeed 	0.25957462637615
scalar RSUExampleScenario.node[148].veinsmobility 	maxSpeed 	13.999900460376
scalar RSUExampleScenario.node[148].veinsmobility 	totalDistance 	3410.2053159983
scalar RSUExampleScenario.node[148].veinsmobility 	totalCO2Emission 	768.65035528736
scalar RSUExampleScenario.node[149].veinsmobility 	startTime 	447.1
scalar RSUExampleScenario.node[149].veinsmobility 	totalTime 	349.2
scalar RSUExampleScenario.node[149].veinsmobility 	stopTime 	796.4
scalar RSUExampleScenario.node[149].veinsmobility 	minSpeed 	0.25348534897622
scalar RSUExampleScenario.node[149].veinsmobility 	maxSpeed 	13.999888179535
scalar RSUExampleScenario.node[149].veinsmobility 	totalDistance 	3413.8280174998
scalar RSUExampleScenario.node[149].veinsmobility 	totalCO2Emission 	770.67645753579
scalar RSUExampleScenario.node[150].veinsmobility 	startTime 	450.1
scalar RSUExampleScenario.node[150].veinsmobility 	totalTime 	349.9
scalar RSUExampleScenario.node[150].veinsmobility 	stopTime 	800.1
scalar RSUExampleScenario.node[150].veinsmobility 	minSpeed 	0.25929417495918
scalar RSUExampleScenario.node[150].veinsmobility 	maxSpeed 	13.999852502723
scalar RSUExampleScenario.node[150].veinsmobility 	totalDistance 	3410.1440498782
scalar RSUExampleScenario.node[150].veinsmobility 	totalCO2Emission 	776.87114331557
scalar RSUExampleScenario.node[151].veinsmobility 	startTime 	453.1
scalar RSUExampleScenario.node[151].veinsmobility 	totalTime 	350.6
scalar RSUExampleScenario.node[151].veinsmobility 	stopTime 	803.8
scalar RSUExampleScenario.node[151].veinsmobility 	minSpeed 	0.25106612116471
scalar RSUExampleScenario.node[151].veinsmobility 	maxSpeed 	13.999959879273
scalar RSUExampleScenario.node[151].veinsmobility 	totalDistance 	3413.846417997
scalar RSUExampleScenario.node[151].veinsmobility 	totalCO2Emission 	772.39833469037
scalar RSUExampleScenario.node[152].veinsmobility 	startTime 	456.1
scalar RSUExampleScenario.node[152].veinsmobility 	totalTime 	351.3
scalar RSUExampleScenario.node[152].veinsmobility 	stopTime 	807.5
scalar RSUExampleScenario.node[152].veinsmobility 	minSpeed 	0.25524342229357
scalar RSUExampleScenario.node[152].veinsmobility 	maxSpeed 	13.99999087387
scalar RSUExampleScenario.node[152].veinsmobility 	totalDistance 	3410.196757814
[...]
scalar RSUExampleScenario.node[628].veinsmobility 	totalCO2Emission 	325.65518439234
scalar RSUExampleScenario.node[629].veinsmobility 	startTime 	1887.1
scalar RSUExampleScenario.node[629].veinsmobility 	totalTime 	112.8
scalar RSUExampleScenario.node[629].veinsmobility 	stopTime 	2000
scalar RSUExampleScenario.node[629].veinsmobility 	minSpeed 	0.25414109449997
scalar RSUExampleScenario.node[629].veinsmobility 	maxSpeed 	13.999580876718
scalar RSUExampleScenario.node[629].veinsmobility 	totalDistance 	1360.7310404172
scalar RSUExampleScenario.node[629].veinsmobility 	totalCO2Emission 	317.64738934692
scalar RSUExampleScenario.node[630].veinsmobility 	startTime 	1890.1
scalar RSUExampleScenario.node[630].veinsmobility 	totalTime 	109.8
scalar RSUExampleScenario.node[630].veinsmobility 	stopTime 	2000
scalar RSUExampleScenario.node[630].veinsmobility 	minSpeed 	0.25008167842007
scalar RSUExampleScenario.node[630].veinsmobility 	maxSpeed 	13.999794196901
scalar RSUExampleScenario.node[630].veinsmobility 	totalDistance 	1318.6895577776
scalar RSUExampleScenario.node[630].veinsmobility 	totalCO2Emission 	310.69938456498
scalar RSUExampleScenario.node[631].veinsmobility 	startTime 	1893.1
scalar RSUExampleScenario.node[631].veinsmobility 	totalTime 	106.8
scalar RSUExampleScenario.node[631].veinsmobility 	stopTime 	2000
scalar RSUExampleScenario.node[631].veinsmobility 	minSpeed 	0.25472867309209
scalar RSUExampleScenario.node[631].veinsmobility 	maxSpeed 	13.999982669067
scalar RSUExampleScenario.node[631].veinsmobility 	totalDistance 	1278.0843293943
scalar RSUExampleScenario.node[631].veinsmobility 	totalCO2Emission 	304.65010643805
scalar RSUExampleScenario.node[632].veinsmobility 	startTime 	1896.1
scalar RSUExampleScenario.node[632].veinsmobility 	totalTime 	103.8
scalar RSUExampleScenario.node[632].veinsmobility 	stopTime 	2000
scalar RSUExampleScenario.node[632].veinsmobility 	minSpeed 	0.25449977473146
scalar RSUExampleScenario.node[632].veinsmobility 	maxSpeed 	13.999865702349
scalar RSUExampleScenario.node[632].veinsmobility 	totalDistance 	1235.2342181362
scalar RSUExampleScenario.node[632].veinsmobility 	totalCO2Emission 	296.6901086326
scalar RSUExampleScenario.node[633].veinsmobility 	startTime 	1899.1
scalar RSUExampleScenario.node[633].veinsmobility 	totalTime 	100.8
scalar RSUExampleScenario.node[633].veinsmobility 	stopTime 	2000
scalar RSUExampleScenario.node[633].veinsmobility 	minSpeed 	0.25542417451972
scalar RSUExampleScenario.node[633].veinsmobility 	maxSpeed 	13.999946027524
scalar RSUExampleScenario.node[633].veinsmobility 	totalDistance 	1194.6389098755
scalar RSUExampleScenario.node[633].veinsmobility 	totalCO2Emission 	291.75619361807
scalar RSUExampleScenario.node[634].veinsmobility 	startTime 	1902.1
scalar RSUExampleScenario.node[634].veinsmobility 	totalTime 	97.8
scalar RSUExampleScenario.node[634].veinsmobility 	stopTime 	2000
scalar RSUExampleScenario.node[634].veinsmobility 	minSpeed 	0.25820817205426
scalar RSUExampleScenario.node[634].veinsmobility 	maxSpeed 	13.999468808055
scalar RSUExampleScenario.node[634].veinsmobility 	totalDistance 	1155.513006106
scalar RSUExampleScenario.node[634].veinsmobility 	totalCO2Emission 	283.31194694876
scalar RSUExampleScenario.node[635].veinsmobility 	startTime 	1905.1
scalar RSUExampleScenario.node[635].veinsmobility 	totalTime 	94.8
scalar RSUExampleScenario.node[635].veinsmobility 	stopTime 	2000
scalar RSUExampleScenario.node[635].veinsmobility 	minSpeed 	0.25762076403131
scalar RSUExampleScenario.node[635].veinsmobility 	maxSpeed 	13.999990929835
scalar RSUExampleScenario.node[635].veinsmobility 	totalDistance 	1112.6961521379
scalar RSUExampleScenario.node[635].veinsmobility 	totalCO2Emission 	274.83577532564
scalar RSUExampleScenario.node[636].veinsmobility 	startTime 	1908.1
scalar RSUExampleScenario.node[636].veinsmobility 	totalTime 	91.8
scalar RSUExampleScenario.node[636].veinsmobility 	stopTime 	2000
scalar RSUExampleScenario.node[636].veinsmobility 	minSpeed 	0.2530253071303
scalar RSUExampleScenario.node[636].veinsmobility 	maxSpeed 	13.999911113556
scalar RSUExampleScenario.node[636].veinsmobility 	totalDistance 	1071.9008389144
scalar RSUExampleScenario.node[636].veinsmobility 	totalCO2Emission 	268.32855768119
scalar RSUExampleScenario.node[637].veinsmobility 	startTime 	1911.1
scalar RSUExampleScenario.node[637].veinsmobility 	totalTime 	88.8
scalar RSUExampleScenario.node[637].veinsmobility 	stopTime 	2000
scalar RSUExampleScenario.node[637].veinsmobility 	minSpeed 	0.25037690708437
scalar RSUExampleScenario.node[637].veinsmobility 	maxSpeed 	13.999587819346
scalar RSUExampleScenario.node[637].veinsmobility 	totalDistance 	1028.534601184
scalar RSUExampleScenario.node[637].veinsmobility 	totalCO2Emission 	262.44195267515
scalar RSUExampleScenario.node[638].veinsmobility 	startTime 	1914.1
scalar RSUExampleScenario.node[638].veinsmobility 	totalTime 	85.8
scalar RSUExampleScenario.node[638].veinsmobility 	stopTime 	2000
scalar RSUExampleScenario.node[638].veinsmobility 	minSpeed 	0.25642281656573
scalar RSUExampleScenario.node[638].veinsmobility 	maxSpeed 	13.9994252313
scalar RSUExampleScenario.node[638].veinsmobility 	totalDistance 	986.32153756477
scalar RSUExampleScenario.node[638].veinsmobility 	totalCO2Emission 	252.13214460464
scalar RSUExampleScenario.node[639].veinsmobility 	startTime 	1917.1
scalar RSUExampleScenario.node[639].veinsmobility 	totalTime 	82.8
scalar RSUExampleScenario.node[639].veinsmobility 	stopTime 	2000
scalar RSUExampleScenario.node[639].veinsmobility 	minSpeed 	0.25903928082273
scalar RSUExampleScenario.node[639].veinsmobility 	maxSpeed 	13.9990497454
scalar RSUExampleScenario.node[639].veinsmobility 	totalDistance 	953.18249699668
scalar RSUExampleScenario.node[639].veinsmobility 	totalCO2Emission 	233.04873840958
scalar RSUExampleScenario.node[640].veinsmobility 	startTime 	1920.1
scalar RSUExampleScenario.node[640].veinsmobility 	totalTime 	79.8
scalar RSUExampleScenario.node[640].veinsmobility 	stopTime 	2000
scalar RSUExampleScenario.node[640].veinsmobility 	minSpeed 	0.25982674452686
scalar RSUExampleScenario.node[640].veinsmobility 	maxSpeed 	13.999895020735
scalar RSUExampleScenario.node[640].veinsmobility 	totalDistance 	937.27551893134
scalar RSUExampleScenario.node[640].veinsmobility 	totalCO2Emission 	222.31694512685
scalar RSUExampleScenario.node[641].veinsmobility 	startTime 	1923.1
scalar RSUExampleScenario.node[641].veinsmobility 	totalTime 	76.8
scalar RSUExampleScenario.node[641].veinsmobility 	stopTime 	2000
scalar RSUExampleScenario.node[641].veinsmobility 	minSpeed 	0.25068896868243
scalar RSUExampleScenario.node[641].veinsmobility 	maxSpeed 	13.999929987006
scalar RSUExampleScenario.node[641].veinsmobility 	totalDistance 	913.0866442255
scalar RSUExampleScenario.node[641].veinsmobility 	totalCO2Emission 	217.28725940453
scalar RSUExampleScenario.node[642].veinsmobility 	startTime 	1926.1
scalar RSUExampleScenario.node[642].veinsmobility 	totalTime 	73.8
scalar RSUExampleScenario.node[642].veinsmobility 	stopTime 	2000
scalar RSUExampleScenario.node[642].veinsmobility 	minSpeed 	0.24743294464843
scalar RSUExampleScenario.node[642].veinsmobility 	maxSpeed 	13.999847012626
scalar RSUExampleScenario.node[642].veinsmobility 	totalDistance 	872.65740132459
scalar RSUExampleScenario.node[642].veinsmobility 	totalCO2Emission 	212.47271383584
scalar RSUExampleScenario.node[643].veinsmobility 	startTime 	1929.1
scalar RSUExampleScenario.node[643].veinsmobility 	totalTime 	70.8
scalar RSUExampleScenario.node[643].veinsmobility 	stopTime 	2000
scalar RSUExampleScenario.node[643].veinsmobility 	minSpeed 	0.25392868715385
scalar RSUExampleScenario.node[643].veinsmobility 	maxSpeed 	13.999393311623
scalar RSUExampleScenario.node[643].veinsmobility 	totalDistance 	831.36940315458
scalar RSUExampleScenario.node[643].veinsmobility 	totalCO2Emission 	205.62995679567
scalar RSUExampleScenario.node[644].veinsmobility 	startTime 	1932.1
scalar RSUExampleScenario.node[644].veinsmobility 	totalTime 	67.8
scalar RSUExampleScenario.node[644].veinsmobility 	stopTime 	2000
scalar RSUExampleScenario.node[644].veinsmobility 	minSpeed 	0.25163503773487
scalar RSUExampleScenario.node[644].veinsmobility 	maxSpeed 	13.999081617224
scalar RSUExampleScenario.node[644].veinsmobility 	totalDistance 	790.62731983063
scalar RSUExampleScenario.node[644].veinsmobility 	totalCO2Emission 	200.86278441001
scalar RSUExampleScenario.node[645].veinsmobility 	startTime 	1935.1
scalar RSUExampleScenario.node[645].veinsmobility 	totalTime 	64.8
scalar RSUExampleScenario.node[645].veinsmobility 	stopTime 	2000
scalar RSUExampleScenario.node[645].veinsmobility 	minSpeed 	0.2522227522938
scalar RSUExampleScenario.node[645].veinsmobility 	maxSpeed 	13.9994053357
scalar RSUExampleScenario.node[645].veinsmobility 	totalDistance 	749.11745731006
scalar RSUExampleScenario.node[645].veinsmobility 	totalCO2Emission 	192.92023797631
scalar RSUExampleScenario.node[646].veinsmobility 	startTime 	1938.1
scalar RSUExampleScenario.node[646].veinsmobility 	totalTime 	61.8
scalar RSUExampleScenario.node[646].veinsmobility 	stopTime 	2000
scalar RSUExampleScenario.node[646].veinsmobility 	minSpeed 	0.25482557141688
scalar RSUExampleScenario.node[646].veinsmobility 	maxSpeed 	13.999142003546
scalar RSUExampleScenario.node[646].veinsmobility 	totalDistance 	704.77603440738
scalar RSUExampleScenario.node[646].veinsmobility 	totalCO2Emission 	185.72019851487
scalar RSUExampleScenario.node[647].veinsmobility 	startTime 	1941.1
scalar RSUExampleScenario.node[647].veinsmobility 	totalTime 	58.8
scalar RSUExampleScenario.node[647].veinsmobility 	stopTime 	2000
scalar RSUExampleScenario.node[647].veinsmobility 	minSpeed 	0.25780936515424
scalar RSUExampleScenario.node[647].veinsmobility 	maxSpeed 	13.999397883965
scalar RSUExampleScenario.node[647].veinsmobility 	totalDistance 	663.62689721999
scalar RSUExampleScenario.node[647].veinsmobility 	totalCO2Emission 	177.61357516942
scalar RSUExampleScenario.node[648].veinsmobility 	startTime 	1944.1
scalar RSUExampleScenario.node[648].veinsmobility 	totalTime 	55.8
scalar RSUExampleScenario.node[648].veinsmobility 	stopTime 	2000
scalar RSUExampleScenario.node[648].veinsmobility 	minSpeed 	0.25313493117783
scalar RSUExampleScenario.node[648].veinsmobility 	maxSpeed 	13.999031259622
scalar RSUExampleScenario.node[648].veinsmobility 	totalDistance 	620.94469739856
scalar RSUExampleScenario.node[648].veinsmobility 	totalCO2Emission 	169.79616380285
scalar RSUExampleScenario.node[649].veinsmobility 	startTime 	1947.1
scalar RSUExampleScenario.node[649].veinsmobility 	totalTime 	52.8
scalar RSUExampleScenario.node[649].veinsmobility 	stopTime 	2000
scalar RSUExampleScenario.node[649].veinsmobility 	minSpeed 	0.2483893516066
scalar RSUExampleScenario.node[649].veinsmobility 	maxSpeed 	13.999915523208
scalar RSUExampleScenario.node[649].veinsmobility 	totalDistance 	578.57436250815
scalar RSUExampleScenario.node[649].veinsmobility 	totalCO2Emission 	163.31771567417
scalar RSUExampleScenario.node[650].veinsmobility 	startTime 	1950.1
scalar RSUExampleScenario.node[650].veinsmobility 	totalTime 	49.8
scalar RSUExampleScenario.node[650].veinsmobility 	stopTime 	2000
scalar RSUExampleScenario.node[650].veinsmobility 	minSpeed 	0.25716987164901
scalar RSUExampleScenario.node[650].veinsmobility 	maxSpeed 	13.999959973346
scalar RSUExampleScenario.node[650].veinsmobility 	totalDistance 	538.38925254142
scalar RSUExampleScenario.node[650].veinsmobility 	totalCO2Emission 	157.73032182755
scalar RSUExampleScenario.node[651].veinsmobility 	startTime 	1953.1
scalar RSUExampleScenario.node[651].veinsmobility 	totalTime 	46.8
scalar RSUExampleScenario.node[651].veinsmobility 	stopTime 	2000
scalar RSUExampleScenario.node[651].veinsmobility 	minSpeed 	0.24999766391981
scalar RSUExampleScenario.node[651].veinsmobility 	maxSpeed 	13.998517536693
scalar RSUExampleScenario.node[651].veinsmobility 	totalDistance 	496.85700240252
scalar RSUExampleScenario.node[651].veinsmobility 	totalCO2Emission 	149.86000151958
scalar RSUExampleScenario.node[652].veinsmobility 	startTime 	1956.1
scalar RSUExampleScenario.node[652].veinsmobility 	totalTime 	43.8
scalar RSUExampleScenario.node[652].veinsmobility 	stopTime 	2000
scalar RSUExampleScenario.node[652].veinsmobility 	minSpeed 	0.25125572046824
scalar RSUExampleScenario.node[652].veinsmobility 	maxSpeed 	13.999223938857
scalar RSUExampleScenario.node[652].veinsmobility 	totalDistance 	454.68498803398
scalar RSUExampleScenario.node[652].veinsmobility 	totalCO2Emission 	143.6528196896
scalar RSUExampleScenario.node[653].veinsmobility 	startTime 	1959.1
scalar RSUExampleScenario.node[653].veinsmobility 	totalTime 	40.8
scalar RSUExampleScenario.node[653].veinsmobility 	stopTime 	2000
scalar RSUExampleScenario.node[653].veinsmobility 	minSpeed 	0.2523050439707
scalar RSUExampleScenario.node[653].veinsmobility 	maxSpeed 	13.99828005936
scalar RSUExampleScenario.node[653].veinsmobility 	totalDistance 	413.52438815917
scalar RSUExampleScenario.node[653].veinsmobility 	totalCO2Emission 	136.71979959854
scalar RSUExampleScenario.node[654].veinsmobility 	startTime 	1962.1
scalar RSUExampleScenario.node[654].veinsmobility 	totalTime 	37.8
scalar RSUExampleScenario.node[654].veinsmobility 	stopTime 	2000
scalar RSUExampleScenario.node[654].veinsmobility 	minSpeed 	0.24901949905767
scalar RSUExampleScenario.node[654].veinsmobility 	maxSpeed 	13.996102984753
scalar RSUExampleScenario.node[654].veinsmobility 	totalDistance 	370.64836300006
scalar RSUExampleScenario.node[654].veinsmobility 	totalCO2Emission 	129.04963792508
scalar RSUExampleScenario.node[655].veinsmobility 	startTime 	1965.1
scalar RSUExampleScenario.node[655].veinsmobility 	totalTime 	34.8
scalar RSUExampleScenario.node[655].veinsmobility 	stopTime 	2000
scalar RSUExampleScenario.node[655].veinsmobility 	minSpeed 	0.24931038502301
scalar RSUExampleScenario.node[655].veinsmobility 	maxSpeed 	13.999340156836
scalar RSUExampleScenario.node[655].veinsmobility 	totalDistance 	329.00403632001
scalar RSUExampleScenario.node[655].veinsmobility 	totalCO2Emission 	121.60426120278
scalar RSUExampleScenario.node[656].veinsmobility 	startTime 	1968.1
scalar RSUExampleScenario.node[656].veinsmobility 	totalTime 	31.8
scalar RSUExampleScenario.node[656].veinsmobility 	stopTime 	2000
scalar RSUExampleScenario.node[656].veinsmobility 	minSpeed 	0.25233823793917
scalar RSUExampleScenario.node[656].veinsmobility 	maxSpeed 	13.996606747669
scalar RSUExampleScenario.node[656].veinsmobility 	totalDistance 	287.54214174618
scalar RSUExampleScenario.node[656].veinsmobility 	totalCO2Emission 	115.57767440525
scalar RSUExampleScenario.node[657].veinsmobility 	startTime 	1971.1
scalar RSUExampleScenario.node[657].veinsmobility 	totalTime 	28.8
scalar RSUExampleScenario.node[657].veinsmobility 	stopTime 	2000
scalar RSUExampleScenario.node[657].veinsmobility 	minSpeed 	0.25568463588576
scalar RSUExampleScenario.node[657].veinsmobility 	maxSpeed 	13.882658555284
scalar RSUExampleScenario.node[657].veinsmobility 	totalDistance 	248.24403823958
scalar RSUExampleScenario.node[657].veinsmobility 	totalCO2Emission 	97.929590272788
scalar RSUExampleScenario.node[658].veinsmobility 	startTime 	1974.1
scalar RSUExampleScenario.node[658].veinsmobility 	totalTime 	25.8
scalar RSUExampleScenario.node[658].veinsmobility 	stopTime 	2000
scalar RSUExampleScenario.node[658].veinsmobility 	minSpeed 	0.25632280978258
scalar RSUExampleScenario.node[658].veinsmobility 	maxSpeed 	13.885157618432
scalar RSUExampleScenario.node[658].veinsmobility 	totalDistance 	225.76030922139
scalar RSUExampleScenario.node[658].veinsmobility 	totalCO2Emission 	82.96452127802
scalar RSUExampleScenario.node[659].veinsmobility 	startTime 	1977.1
scalar RSUExampleScenario.node[659].veinsmobility 	totalTime 	22.8
scalar RSUExampleScenario.node[659].veinsmobility 	stopTime 	2000
scalar RSUExampleScenario.node[659].veinsmobility 	minSpeed 	0.25496282724291
scalar RSUExampleScenario.node[659].veinsmobility 	maxSpeed 	13.882522082515
scalar RSUExampleScenario.node[659].veinsmobility 	totalDistance 	207.20381649008
scalar RSUExampleScenario.node[659].veinsmobility 	totalCO2Emission 	78.322241332787
scalar RSUExampleScenario.node[660].veinsmobility 	startTime 	1980.1
scalar RSUExampleScenario.node[660].veinsmobility 	totalTime 	19.8
scalar RSUExampleScenario.node[660].veinsmobility 	stopTime 	2000
scalar RSUExampleScenario.node[660].veinsmobility 	minSpeed 	0.24905338985566
scalar RSUExampleScenario.node[660].veinsmobility 	maxSpeed 	13.887401414693
scalar RSUExampleScenario.node[660].veinsmobility 	totalDistance 	175.51447861474
scalar RSUExampleScenario.node[660].veinsmobility 	totalCO2Emission 	75.279014426291
scalar RSUExampleScenario.node[661].veinsmobility 	startTime 	1983.1
scalar RSUExampleScenario.node[661].veinsmobility 	totalTime 	16.8
scalar RSUExampleScenario.node[661].veinsmobility 	stopTime 	2000
scalar RSUExampleScenario.node[661].veinsmobility 	minSpeed 	0.25537072042818
scalar RSUExampleScenario.node[661].veinsmobility 	maxSpeed 	13.889661343608
scalar RSUExampleScenario.node[661].veinsmobility 	totalDistance 	135.76570219643
scalar RSUExampleScenario.node[661].veinsmobility 	totalCO2Emission 	56.580178783583
scalar RSUExampleScenario.node[662].veinsmobility 	startTime 	1986.1
scalar RSUExampleScenario.node[662].veinsmobility 	totalTime 	13.8
scalar RSUExampleScenario.node[662].veinsmobility 	stopTime 	2000
scalar RSUExampleScenario.node[662].veinsmobility 	minSpeed 	0.25928955503274
scalar RSUExampleScenario.node[662].veinsmobility 	maxSpeed 	13.884147995966
scalar RSUExampleScenario.node[662].veinsmobility 	totalDistance 	116.72411973403
scalar RSUExampleScenario.node[662].veinsmobility 	totalCO2Emission 	42.375183589685
scalar RSUExampleScenario.node[663].veinsmobility 	startTime 	1989.1
scalar RSUExampleScenario.node[663].veinsmobility 	totalTime 	10.8
scalar RSUExampleScenario.node[663].veinsmobility 	stopTime 	2000
scalar RSUExampleScenario.node[663].veinsmobility 	minSpeed 	0.25257970061852
scalar RSUExampleScenario.node[663].veinsmobility 	maxSpeed 	13.859555741823
scalar RSUExampleScenario.node[663].veinsmobility 	totalDistance 	96.030830682464
scalar RSUExampleScenario.node[663].veinsmobility 	totalCO2Emission 	39.37509219087
scalar RSUExampleScenario.node[664].veinsmobility 	startTime 	1992.1
scalar RSUExampleScenario.node[664].veinsmobility 	totalTime 	7.8
scalar RSUExampleScenario.node[664].veinsmobility 	stopTime 	2000
scalar RSUExampleScenario.node[664].veinsmobility 	minSpeed 	0.25822975141043
scalar RSUExampleScenario.node[664].veinsmobility 	maxSpeed 	13.883091457521
scalar RSUExampleScenario.node[664].veinsmobility 	totalDistance 	64.607196707752
scalar RSUExampleScenario.node[664].veinsmobility 	totalCO2Emission 	36.312208385844
scalar RSUExampleScenario.node[665].veinsmobility 	startTime 	1995.1
scalar RSUExampleScenario.node[665].veinsmobility 	totalTime 	4.8
scalar RSUExampleScenario.node[665].veinsmobility 	stopTime 	2000
scalar RSUExampleScenario.node[665].veinsmobility 	minSpeed 	0.25107742826035
scalar RSUExampleScenario.node[665].veinsmobility 	maxSpeed 	9.1473851727674
scalar RSUExampleScenario.node[665].veinsmobility 	totalDistance 	23.281591103969
scalar RSUExampleScenario.node[665].veinsmobility 	totalCO2Emission 	16.719866621989
scalar RSUExampleScenario.node[666].veinsmobility 	startTime 	1998.1
scalar RSUExampleScenario.node[666].veinsmobility 	totalTime 	1.8
scalar RSUExampleScenario.node[666].veinsmobility 	stopTime 	2000
scalar RSUExampleScenario.node[666].veinsmobility 	minSpeed 	0.25333939059637
scalar RSUExampleScenario.node[666].veinsmobility 	maxSpeed 	3.4868360200823
scalar RSUExampleScenario.node[666].veinsmobility 	totalDistance 	3.5807587481834
scalar RSUExampleScenario.node[666].veinsmobility 	totalCO2Emission 	3.59506633887
