version 2
run statistic3-403-20150325-01:36:35-17480
attr c 13
attr configname statistic3
attr datetime 20150325-01:36:35
attr experiment statistic3
attr inifile omnetpp.ini
attr iterationvars "$p=1/10, $c=13"
attr iterationvars2 "$p=1/10, $c=13, $repetition=3"
attr measurement "$p=1/10, $c=13"
attr network RSUExampleScenario
attr p 1/10
attr processid 17480
attr repetition 3
attr replication #3
attr resultdir results
attr runnumber 403
attr seedset 403

scalar . 	c 	13
scalar RSUExampleScenario.rsu[0].appl 	NumberofCH 	15
scalar RSUExampleScenario.rsu[0].appl 	NumberofON 	85
scalar RSUExampleScenario.rsu[0].appl 	NumberofFN 	0
scalar RSUExampleScenario.rsu[0].appl 	meanClusterNodes 	5.6666666666667
scalar RSUExampleScenario.rsu[0].appl 	varClusterNodes 	3.5714920629277
scalar RSUExampleScenario.rsu[0].appl 	sumCHutility 	584.01401238729
scalar RSUExampleScenario.rsu[0].appl 	meanCHutility 	38.934267492486
scalar RSUExampleScenario.rsu[0].appl 	varCHutility 	2.6291885198207
scalar RSUExampleScenario.rsu[0].appl 	sumDiffCHutility 	-70.915916311617
scalar RSUExampleScenario.rsu[0].appl 	meanDiffCHutility 	-4.7277277541078
scalar RSUExampleScenario.rsu[0].appl 	varDiffCHutility 	2.4539663967814
scalar RSUExampleScenario.rsu[0].appl 	expectedCHutility 	513.09809607567
scalar RSUExampleScenario.rsu[0].appl 	meanExpectedCHutility 	34.206539738378
scalar RSUExampleScenario.rsu[0].appl 	varExpectedCHutility 	0.67122983597764
scalar RSUExampleScenario.node[0].veinsmobility 	startTime 	0.1
scalar RSUExampleScenario.node[0].veinsmobility 	totalTime 	349.9
scalar RSUExampleScenario.node[0].veinsmobility 	stopTime 	350
scalar RSUExampleScenario.node[0].veinsmobility 	minSpeed 	0
scalar RSUExampleScenario.node[0].veinsmobility 	maxSpeed 	13.999996915904
scalar RSUExampleScenario.node[0].veinsmobility 	totalDistance 	3131.4930833652
scalar RSUExampleScenario.node[0].veinsmobility 	totalCO2Emission 	740.69982109825
scalar RSUExampleScenario.node[1].veinsmobility 	startTime 	2.5
scalar RSUExampleScenario.node[1].veinsmobility 	totalTime 	347.5
scalar RSUExampleScenario.node[1].veinsmobility 	stopTime 	350
scalar RSUExampleScenario.node[1].veinsmobility 	minSpeed 	0
scalar RSUExampleScenario.node[1].veinsmobility 	maxSpeed 	13.99997325185
scalar RSUExampleScenario.node[1].veinsmobility 	totalDistance 	3081.0787123553
scalar RSUExampleScenario.node[1].veinsmobility 	totalCO2Emission 	734.00423895551
scalar RSUExampleScenario.node[10].veinsmobility 	startTime 	24.2
scalar RSUExampleScenario.node[10].veinsmobility 	totalTime 	325.8
scalar RSUExampleScenario.node[10].veinsmobility 	stopTime 	350
scalar RSUExampleScenario.node[10].veinsmobility 	minSpeed 	0
scalar RSUExampleScenario.node[10].veinsmobility 	maxSpeed 	13.999964992686
scalar RSUExampleScenario.node[10].veinsmobility 	totalDistance 	2788.2437985433
scalar RSUExampleScenario.node[10].veinsmobility 	totalCO2Emission 	659.91764960915
scalar RSUExampleScenario.node[11].veinsmobility 	startTime 	26.6
scalar RSUExampleScenario.node[11].veinsmobility 	totalTime 	323.4
scalar RSUExampleScenario.node[11].veinsmobility 	stopTime 	350
scalar RSUExampleScenario.node[11].veinsmobility 	minSpeed 	0
scalar RSUExampleScenario.node[11].veinsmobility 	maxSpeed 	13.999997579076
scalar RSUExampleScenario.node[11].veinsmobility 	totalDistance 	2758.9174832817
scalar RSUExampleScenario.node[11].veinsmobility 	totalCO2Emission 	652.95824624297
scalar RSUExampleScenario.node[12].veinsmobility 	startTime 	29
scalar RSUExampleScenario.node[12].veinsmobility 	totalTime 	321
scalar RSUExampleScenario.node[12].veinsmobility 	stopTime 	350
scalar RSUExampleScenario.node[12].veinsmobility 	minSpeed 	0
scalar RSUExampleScenario.node[12].veinsmobility 	maxSpeed 	13.999938230915
scalar RSUExampleScenario.node[12].veinsmobility 	totalDistance 	2718.6199936699
scalar RSUExampleScenario.node[12].veinsmobility 	totalCO2Emission 	649.25849882708
scalar RSUExampleScenario.node[13].veinsmobility 	startTime 	31.4
scalar RSUExampleScenario.node[13].veinsmobility 	totalTime 	318.6
scalar RSUExampleScenario.node[13].veinsmobility 	stopTime 	350
scalar RSUExampleScenario.node[13].veinsmobility 	minSpeed 	0
scalar RSUExampleScenario.node[13].veinsmobility 	maxSpeed 	13.999948077786
scalar RSUExampleScenario.node[13].veinsmobility 	totalDistance 	2685.4500168524
scalar RSUExampleScenario.node[13].veinsmobility 	totalCO2Emission 	646.50142572531
scalar RSUExampleScenario.node[14].veinsmobility 	startTime 	33.8
scalar RSUExampleScenario.node[14].veinsmobility 	totalTime 	316.2
scalar RSUExampleScenario.node[14].veinsmobility 	stopTime 	350
scalar RSUExampleScenario.node[14].veinsmobility 	minSpeed 	0
scalar RSUExampleScenario.node[14].veinsmobility 	maxSpeed 	13.999738024457
scalar RSUExampleScenario.node[14].veinsmobility 	totalDistance 	2649.2139483701
scalar RSUExampleScenario.node[14].veinsmobility 	totalCO2Emission 	639.56296662967
scalar RSUExampleScenario.node[15].veinsmobility 	startTime 	36.2
scalar RSUExampleScenario.node[15].veinsmobility 	totalTime 	313.8
scalar RSUExampleScenario.node[15].veinsmobility 	stopTime 	350
scalar RSUExampleScenario.node[15].veinsmobility 	minSpeed 	0
scalar RSUExampleScenario.node[15].veinsmobility 	maxSpeed 	13.999938545732
scalar RSUExampleScenario.node[15].veinsmobility 	totalDistance 	2618.364658682
scalar RSUExampleScenario.node[15].veinsmobility 	totalCO2Emission 	632.59139381342
scalar RSUExampleScenario.node[16].veinsmobility 	startTime 	38.6
scalar RSUExampleScenario.node[16].veinsmobility 	totalTime 	311.4
scalar RSUExampleScenario.node[16].veinsmobility 	stopTime 	350
scalar RSUExampleScenario.node[16].veinsmobility 	minSpeed 	0
scalar RSUExampleScenario.node[16].veinsmobility 	maxSpeed 	13.999825231694
scalar RSUExampleScenario.node[16].veinsmobility 	totalDistance 	2578.6378517367
scalar RSUExampleScenario.node[16].veinsmobility 	totalCO2Emission 	629.26449897621
scalar RSUExampleScenario.node[17].veinsmobility 	startTime 	41
scalar RSUExampleScenario.node[17].veinsmobility 	totalTime 	309
scalar RSUExampleScenario.node[17].veinsmobility 	stopTime 	350
scalar RSUExampleScenario.node[17].veinsmobility 	minSpeed 	0
scalar RSUExampleScenario.node[17].veinsmobility 	maxSpeed 	13.999918205617
scalar RSUExampleScenario.node[17].veinsmobility 	totalDistance 	2544.7910973197
scalar RSUExampleScenario.node[17].veinsmobility 	totalCO2Emission 	619.01609748702
scalar RSUExampleScenario.node[18].veinsmobility 	startTime 	43.4
scalar RSUExampleScenario.node[18].veinsmobility 	totalTime 	306.6
scalar RSUExampleScenario.node[18].veinsmobility 	stopTime 	350
scalar RSUExampleScenario.node[18].veinsmobility 	minSpeed 	0
scalar RSUExampleScenario.node[18].veinsmobility 	maxSpeed 	13.999988215826
scalar RSUExampleScenario.node[18].veinsmobility 	totalDistance 	2504.7696394041
scalar RSUExampleScenario.node[18].veinsmobility 	totalCO2Emission 	618.65949719103
scalar RSUExampleScenario.node[19].veinsmobility 	startTime 	45.8
scalar RSUExampleScenario.node[19].veinsmobility 	totalTime 	304.2
scalar RSUExampleScenario.node[19].veinsmobility 	stopTime 	350
scalar RSUExampleScenario.node[19].veinsmobility 	minSpeed 	0
scalar RSUExampleScenario.node[19].veinsmobility 	maxSpeed 	13.999902939748
scalar RSUExampleScenario.node[19].veinsmobility 	totalDistance 	2475.4689875598
scalar RSUExampleScenario.node[19].veinsmobility 	totalCO2Emission 	610.04636645674
scalar RSUExampleScenario.node[2].veinsmobility 	startTime 	4.9
scalar RSUExampleScenario.node[2].veinsmobility 	totalTime 	345.1
scalar RSUExampleScenario.node[2].veinsmobility 	stopTime 	350
scalar RSUExampleScenario.node[2].veinsmobility 	minSpeed 	0
scalar RSUExampleScenario.node[2].veinsmobility 	maxSpeed 	13.999803093993
scalar RSUExampleScenario.node[2].veinsmobility 	totalDistance 	3036.2775367697
scalar RSUExampleScenario.node[2].veinsmobility 	totalCO2Emission 	724.6537787833
scalar RSUExampleScenario.node[20].veinsmobility 	startTime 	48.3
scalar RSUExampleScenario.node[20].veinsmobility 	totalTime 	301.7
scalar RSUExampleScenario.node[20].veinsmobility 	stopTime 	350
scalar RSUExampleScenario.node[20].veinsmobility 	minSpeed 	0
scalar RSUExampleScenario.node[20].veinsmobility 	maxSpeed 	13.999981300228
scalar RSUExampleScenario.node[20].veinsmobility 	totalDistance 	2437.8343053029
scalar RSUExampleScenario.node[20].veinsmobility 	totalCO2Emission 	601.62386567251
scalar RSUExampleScenario.node[21].veinsmobility 	startTime 	50.7
scalar RSUExampleScenario.node[21].veinsmobility 	totalTime 	299.3
scalar RSUExampleScenario.node[21].veinsmobility 	stopTime 	350
scalar RSUExampleScenario.node[21].veinsmobility 	minSpeed 	0
scalar RSUExampleScenario.node[21].veinsmobility 	maxSpeed 	13.999669580192
scalar RSUExampleScenario.node[21].veinsmobility 	totalDistance 	2407.4022800441
scalar RSUExampleScenario.node[21].veinsmobility 	totalCO2Emission 	595.56584533426
scalar RSUExampleScenario.node[22].veinsmobility 	startTime 	53.1
scalar RSUExampleScenario.node[22].veinsmobility 	totalTime 	296.9
scalar RSUExampleScenario.node[22].veinsmobility 	stopTime 	350
scalar RSUExampleScenario.node[22].veinsmobility 	minSpeed 	0
scalar RSUExampleScenario.node[22].veinsmobility 	maxSpeed 	13.999960221029
scalar RSUExampleScenario.node[22].veinsmobility 	totalDistance 	2370.848764154
scalar RSUExampleScenario.node[22].veinsmobility 	totalCO2Emission 	594.11686008767
scalar RSUExampleScenario.node[23].veinsmobility 	startTime 	55.5
scalar RSUExampleScenario.node[23].veinsmobility 	totalTime 	294.5
scalar RSUExampleScenario.node[23].veinsmobility 	stopTime 	350
scalar RSUExampleScenario.node[23].veinsmobility 	minSpeed 	0
scalar RSUExampleScenario.node[23].veinsmobility 	maxSpeed 	13.999873702661
scalar RSUExampleScenario.node[23].veinsmobility 	totalDistance 	2338.3397156464
scalar RSUExampleScenario.node[23].veinsmobility 	totalCO2Emission 	585.3625312733
scalar RSUExampleScenario.node[24].veinsmobility 	startTime 	57.9
scalar RSUExampleScenario.node[24].veinsmobility 	totalTime 	292.1
scalar RSUExampleScenario.node[24].veinsmobility 	stopTime 	350
scalar RSUExampleScenario.node[24].veinsmobility 	minSpeed 	0
scalar RSUExampleScenario.node[24].veinsmobility 	maxSpeed 	13.999599714905
scalar RSUExampleScenario.node[24].veinsmobility 	totalDistance 	2302.1444232673
scalar RSUExampleScenario.node[24].veinsmobility 	totalCO2Emission 	580.35156152217
scalar RSUExampleScenario.node[25].veinsmobility 	startTime 	60.3
scalar RSUExampleScenario.node[25].veinsmobility 	totalTime 	289.7
scalar RSUExampleScenario.node[25].veinsmobility 	stopTime 	350
scalar RSUExampleScenario.node[25].veinsmobility 	minSpeed 	0
scalar RSUExampleScenario.node[25].veinsmobility 	maxSpeed 	13.999850627622
scalar RSUExampleScenario.node[25].veinsmobility 	totalDistance 	2272.082997423
scalar RSUExampleScenario.node[25].veinsmobility 	totalCO2Emission 	573.45699869434
scalar RSUExampleScenario.node[26].veinsmobility 	startTime 	62.7
scalar RSUExampleScenario.node[26].veinsmobility 	totalTime 	287.3
scalar RSUExampleScenario.node[26].veinsmobility 	stopTime 	350
scalar RSUExampleScenario.node[26].veinsmobility 	minSpeed 	0
scalar RSUExampleScenario.node[26].veinsmobility 	maxSpeed 	13.999948413579
scalar RSUExampleScenario.node[26].veinsmobility 	totalDistance 	2235.8513464733
scalar RSUExampleScenario.node[26].veinsmobility 	totalCO2Emission 	569.48570074998
scalar RSUExampleScenario.node[27].veinsmobility 	startTime 	65.1
scalar RSUExampleScenario.node[27].veinsmobility 	totalTime 	284.9
scalar RSUExampleScenario.node[27].veinsmobility 	stopTime 	350
scalar RSUExampleScenario.node[27].veinsmobility 	minSpeed 	0
scalar RSUExampleScenario.node[27].veinsmobility 	maxSpeed 	13.999905483832
scalar RSUExampleScenario.node[27].veinsmobility 	totalDistance 	2203.5732291227
scalar RSUExampleScenario.node[27].veinsmobility 	totalCO2Emission 	563.48908270673
scalar RSUExampleScenario.node[28].veinsmobility 	startTime 	67.5
scalar RSUExampleScenario.node[28].veinsmobility 	totalTime 	282.5
scalar RSUExampleScenario.node[28].veinsmobility 	stopTime 	350
scalar RSUExampleScenario.node[28].veinsmobility 	minSpeed 	0
scalar RSUExampleScenario.node[28].veinsmobility 	maxSpeed 	13.999803022712
scalar RSUExampleScenario.node[28].veinsmobility 	totalDistance 	2166.1858468266
scalar RSUExampleScenario.node[28].veinsmobility 	totalCO2Emission 	557.95393477548
scalar RSUExampleScenario.node[29].veinsmobility 	startTime 	69.9
scalar RSUExampleScenario.node[29].veinsmobility 	totalTime 	280.1
scalar RSUExampleScenario.node[29].veinsmobility 	stopTime 	350
scalar RSUExampleScenario.node[29].veinsmobility 	minSpeed 	0
scalar RSUExampleScenario.node[29].veinsmobility 	maxSpeed 	13.999736651138
scalar RSUExampleScenario.node[29].veinsmobility 	totalDistance 	2134.5701778193
scalar RSUExampleScenario.node[29].veinsmobility 	totalCO2Emission 	553.43163137134
scalar RSUExampleScenario.node[3].veinsmobility 	startTime 	7.3
scalar RSUExampleScenario.node[3].veinsmobility 	totalTime 	342.7
scalar RSUExampleScenario.node[3].veinsmobility 	stopTime 	350
scalar RSUExampleScenario.node[3].veinsmobility 	minSpeed 	0
scalar RSUExampleScenario.node[3].veinsmobility 	maxSpeed 	13.999987990027
scalar RSUExampleScenario.node[3].veinsmobility 	totalDistance 	2996.6386976895
scalar RSUExampleScenario.node[3].veinsmobility 	totalCO2Emission 	715.85256653886
scalar RSUExampleScenario.node[30].veinsmobility 	startTime 	72.4
scalar RSUExampleScenario.node[30].veinsmobility 	totalTime 	277.6
scalar RSUExampleScenario.node[30].veinsmobility 	stopTime 	350
scalar RSUExampleScenario.node[30].veinsmobility 	minSpeed 	0
scalar RSUExampleScenario.node[30].veinsmobility 	maxSpeed 	13.999943184149
scalar RSUExampleScenario.node[30].veinsmobility 	totalDistance 	2100.049777069
scalar RSUExampleScenario.node[30].veinsmobility 	totalCO2Emission 	551.64442253872
scalar RSUExampleScenario.node[31].veinsmobility 	startTime 	74.8
scalar RSUExampleScenario.node[31].veinsmobility 	totalTime 	275.2
scalar RSUExampleScenario.node[31].veinsmobility 	stopTime 	350
scalar RSUExampleScenario.node[31].veinsmobility 	minSpeed 	0
scalar RSUExampleScenario.node[31].veinsmobility 	maxSpeed 	13.99993398359
scalar RSUExampleScenario.node[31].veinsmobility 	totalDistance 	2067.5152797601
scalar RSUExampleScenario.node[31].veinsmobility 	totalCO2Emission 	542.04466642008
scalar RSUExampleScenario.node[32].veinsmobility 	startTime 	77.2
scalar RSUExampleScenario.node[32].veinsmobility 	totalTime 	272.8
scalar RSUExampleScenario.node[32].veinsmobility 	stopTime 	350
scalar RSUExampleScenario.node[32].veinsmobility 	minSpeed 	0
scalar RSUExampleScenario.node[32].veinsmobility 	maxSpeed 	13.999734369658
scalar RSUExampleScenario.node[32].veinsmobility 	totalDistance 	2032.9667634704
scalar RSUExampleScenario.node[32].veinsmobility 	totalCO2Emission 	536.09041986334
scalar RSUExampleScenario.node[33].veinsmobility 	startTime 	79.6
scalar RSUExampleScenario.node[33].veinsmobility 	totalTime 	270.4
scalar RSUExampleScenario.node[33].veinsmobility 	stopTime 	350
scalar RSUExampleScenario.node[33].veinsmobility 	minSpeed 	0
scalar RSUExampleScenario.node[33].veinsmobility 	maxSpeed 	13.999986764325
scalar RSUExampleScenario.node[33].veinsmobility 	totalDistance 	1999.5831881886
scalar RSUExampleScenario.node[33].veinsmobility 	totalCO2Emission 	527.40407238858
scalar RSUExampleScenario.node[34].veinsmobility 	startTime 	82
scalar RSUExampleScenario.node[34].veinsmobility 	totalTime 	268
scalar RSUExampleScenario.node[34].veinsmobility 	stopTime 	350
scalar RSUExampleScenario.node[34].veinsmobility 	minSpeed 	0
scalar RSUExampleScenario.node[34].veinsmobility 	maxSpeed 	13.999987297102
scalar RSUExampleScenario.node[34].veinsmobility 	totalDistance 	1966.2566039264
scalar RSUExampleScenario.node[34].veinsmobility 	totalCO2Emission 	524.74086497449
scalar RSUExampleScenario.node[35].veinsmobility 	startTime 	84.4
scalar RSUExampleScenario.node[35].veinsmobility 	totalTime 	265.6
scalar RSUExampleScenario.node[35].veinsmobility 	stopTime 	350
scalar RSUExampleScenario.node[35].veinsmobility 	minSpeed 	0
scalar RSUExampleScenario.node[35].veinsmobility 	maxSpeed 	13.999963419144
scalar RSUExampleScenario.node[35].veinsmobility 	totalDistance 	1932.4939562102
scalar RSUExampleScenario.node[35].veinsmobility 	totalCO2Emission 	519.44775802944
scalar RSUExampleScenario.node[36].veinsmobility 	startTime 	86.8
scalar RSUExampleScenario.node[36].veinsmobility 	totalTime 	263.2
scalar RSUExampleScenario.node[36].veinsmobility 	stopTime 	350
scalar RSUExampleScenario.node[36].veinsmobility 	minSpeed 	0
scalar RSUExampleScenario.node[36].veinsmobility 	maxSpeed 	13.999842733368
scalar RSUExampleScenario.node[36].veinsmobility 	totalDistance 	1898.6322729607
scalar RSUExampleScenario.node[36].veinsmobility 	totalCO2Emission 	514.22038425033
scalar RSUExampleScenario.node[37].veinsmobility 	startTime 	89.2
scalar RSUExampleScenario.node[37].veinsmobility 	totalTime 	260.8
scalar RSUExampleScenario.node[37].veinsmobility 	stopTime 	350
scalar RSUExampleScenario.node[37].veinsmobility 	minSpeed 	0
scalar RSUExampleScenario.node[37].veinsmobility 	maxSpeed 	13.999867651456
scalar RSUExampleScenario.node[37].veinsmobility 	totalDistance 	1865.1833622414
scalar RSUExampleScenario.node[37].veinsmobility 	totalCO2Emission 	508.31842568088
scalar RSUExampleScenario.node[38].veinsmobility 	startTime 	91.6
scalar RSUExampleScenario.node[38].veinsmobility 	totalTime 	258.4
scalar RSUExampleScenario.node[38].veinsmobility 	stopTime 	350
scalar RSUExampleScenario.node[38].veinsmobility 	minSpeed 	0
scalar RSUExampleScenario.node[38].veinsmobility 	maxSpeed 	13.999966560144
scalar RSUExampleScenario.node[38].veinsmobility 	totalDistance 	1830.7040092423
scalar RSUExampleScenario.node[38].veinsmobility 	totalCO2Emission 	503.05293229682
scalar RSUExampleScenario.node[39].veinsmobility 	startTime 	94
scalar RSUExampleScenario.node[39].veinsmobility 	totalTime 	256
scalar RSUExampleScenario.node[39].veinsmobility 	stopTime 	350
scalar RSUExampleScenario.node[39].veinsmobility 	minSpeed 	0
scalar RSUExampleScenario.node[39].veinsmobility 	maxSpeed 	13.999831303239
scalar RSUExampleScenario.node[39].veinsmobility 	totalDistance 	1796.7008595006
scalar RSUExampleScenario.node[39].veinsmobility 	totalCO2Emission 	496.85403196088
scalar RSUExampleScenario.node[4].veinsmobility 	startTime 	9.7
scalar RSUExampleScenario.node[4].veinsmobility 	totalTime 	340.3
scalar RSUExampleScenario.node[4].veinsmobility 	stopTime 	350
scalar RSUExampleScenario.node[4].veinsmobility 	minSpeed 	0
scalar RSUExampleScenario.node[4].veinsmobility 	maxSpeed 	13.999992072573
scalar RSUExampleScenario.node[4].veinsmobility 	totalDistance 	2946.0993992979
scalar RSUExampleScenario.node[4].veinsmobility 	totalCO2Emission 	701.82924158555
scalar RSUExampleScenario.node[40].veinsmobility 	startTime 	96.5
scalar RSUExampleScenario.node[40].veinsmobility 	totalTime 	253.5
scalar RSUExampleScenario.node[40].veinsmobility 	stopTime 	350
scalar RSUExampleScenario.node[40].veinsmobility 	minSpeed 	0
scalar RSUExampleScenario.node[40].veinsmobility 	maxSpeed 	13.999975765001
scalar RSUExampleScenario.node[40].veinsmobility 	totalDistance 	1764.0330854626
scalar RSUExampleScenario.node[40].veinsmobility 	totalCO2Emission 	487.58980115018
scalar RSUExampleScenario.node[41].veinsmobility 	startTime 	98.9
scalar RSUExampleScenario.node[41].veinsmobility 	totalTime 	251.1
scalar RSUExampleScenario.node[41].veinsmobility 	stopTime 	350
scalar RSUExampleScenario.node[41].veinsmobility 	minSpeed 	0
scalar RSUExampleScenario.node[41].veinsmobility 	maxSpeed 	13.999866707337
scalar RSUExampleScenario.node[41].veinsmobility 	totalDistance 	1731.7674891455
scalar RSUExampleScenario.node[41].veinsmobility 	totalCO2Emission 	484.14976104997
scalar RSUExampleScenario.node[42].veinsmobility 	startTime 	101.3
scalar RSUExampleScenario.node[42].veinsmobility 	totalTime 	248.7
scalar RSUExampleScenario.node[42].veinsmobility 	stopTime 	350
scalar RSUExampleScenario.node[42].veinsmobility 	minSpeed 	0
scalar RSUExampleScenario.node[42].veinsmobility 	maxSpeed 	13.99977240483
scalar RSUExampleScenario.node[42].veinsmobility 	totalDistance 	1696.493250185
scalar RSUExampleScenario.node[42].veinsmobility 	totalCO2Emission 	477.26623373194
scalar RSUExampleScenario.node[43].veinsmobility 	startTime 	103.7
scalar RSUExampleScenario.node[43].veinsmobility 	totalTime 	246.3
scalar RSUExampleScenario.node[43].veinsmobility 	stopTime 	350
scalar RSUExampleScenario.node[43].veinsmobility 	minSpeed 	0
scalar RSUExampleScenario.node[43].veinsmobility 	maxSpeed 	13.999698823544
scalar RSUExampleScenario.node[43].veinsmobility 	totalDistance 	1664.5995876251
scalar RSUExampleScenario.node[43].veinsmobility 	totalCO2Emission 	470.52430934389
scalar RSUExampleScenario.node[44].veinsmobility 	startTime 	106.1
scalar RSUExampleScenario.node[44].veinsmobility 	totalTime 	243.9
scalar RSUExampleScenario.node[44].veinsmobility 	stopTime 	350
scalar RSUExampleScenario.node[44].veinsmobility 	minSpeed 	0
scalar RSUExampleScenario.node[44].veinsmobility 	maxSpeed 	13.99990848911
scalar RSUExampleScenario.node[44].veinsmobility 	totalDistance 	1630.7217212693
scalar RSUExampleScenario.node[44].veinsmobility 	totalCO2Emission 	470.14973299387
scalar RSUExampleScenario.node[45].veinsmobility 	startTime 	108.5
scalar RSUExampleScenario.node[45].veinsmobility 	totalTime 	241.5
scalar RSUExampleScenario.node[45].veinsmobility 	stopTime 	350
scalar RSUExampleScenario.node[45].veinsmobility 	minSpeed 	0
scalar RSUExampleScenario.node[45].veinsmobility 	maxSpeed 	13.999932432387
scalar RSUExampleScenario.node[45].veinsmobility 	totalDistance 	1596.6004640535
scalar RSUExampleScenario.node[45].veinsmobility 	totalCO2Emission 	459.86138985526
scalar RSUExampleScenario.node[46].veinsmobility 	startTime 	110.9
scalar RSUExampleScenario.node[46].veinsmobility 	totalTime 	239.1
scalar RSUExampleScenario.node[46].veinsmobility 	stopTime 	350
scalar RSUExampleScenario.node[46].veinsmobility 	minSpeed 	0
scalar RSUExampleScenario.node[46].veinsmobility 	maxSpeed 	13.999892905094
scalar RSUExampleScenario.node[46].veinsmobility 	totalDistance 	1563.518318832
scalar RSUExampleScenario.node[46].veinsmobility 	totalCO2Emission 	457.21426853492
scalar RSUExampleScenario.node[47].veinsmobility 	startTime 	113.3
scalar RSUExampleScenario.node[47].veinsmobility 	totalTime 	236.7
scalar RSUExampleScenario.node[47].veinsmobility 	stopTime 	350
scalar RSUExampleScenario.node[47].veinsmobility 	minSpeed 	0
scalar RSUExampleScenario.node[47].veinsmobility 	maxSpeed 	13.999912855418
scalar RSUExampleScenario.node[47].veinsmobility 	totalDistance 	1527.5266191033
scalar RSUExampleScenario.node[47].veinsmobility 	totalCO2Emission 	451.00355342239
scalar RSUExampleScenario.node[48].veinsmobility 	startTime 	115.7
scalar RSUExampleScenario.node[48].veinsmobility 	totalTime 	234.3
scalar RSUExampleScenario.node[48].veinsmobility 	stopTime 	350
scalar RSUExampleScenario.node[48].veinsmobility 	minSpeed 	0
scalar RSUExampleScenario.node[48].veinsmobility 	maxSpeed 	13.999996981102
scalar RSUExampleScenario.node[48].veinsmobility 	totalDistance 	1494.9252680765
scalar RSUExampleScenario.node[48].veinsmobility 	totalCO2Emission 	445.80780557397
scalar RSUExampleScenario.node[49].veinsmobility 	startTime 	118.1
scalar RSUExampleScenario.node[49].veinsmobility 	totalTime 	231.9
scalar RSUExampleScenario.node[49].veinsmobility 	stopTime 	350
scalar RSUExampleScenario.node[49].veinsmobility 	minSpeed 	0
scalar RSUExampleScenario.node[49].veinsmobility 	maxSpeed 	13.999870617052
scalar RSUExampleScenario.node[49].veinsmobility 	totalDistance 	1462.127027712
scalar RSUExampleScenario.node[49].veinsmobility 	totalCO2Emission 	440.45209844855
scalar RSUExampleScenario.node[5].veinsmobility 	startTime 	12.1
scalar RSUExampleScenario.node[5].veinsmobility 	totalTime 	337.9
scalar RSUExampleScenario.node[5].veinsmobility 	stopTime 	350
scalar RSUExampleScenario.node[5].veinsmobility 	minSpeed 	0
scalar RSUExampleScenario.node[5].veinsmobility 	maxSpeed 	13.99996893052
scalar RSUExampleScenario.node[5].veinsmobility 	totalDistance 	2918.0692294767
scalar RSUExampleScenario.node[5].veinsmobility 	totalCO2Emission 	688.35575241906
scalar RSUExampleScenario.node[50].veinsmobility 	startTime 	120.6
scalar RSUExampleScenario.node[50].veinsmobility 	totalTime 	229.4
scalar RSUExampleScenario.node[50].veinsmobility 	stopTime 	350
scalar RSUExampleScenario.node[50].veinsmobility 	minSpeed 	0
scalar RSUExampleScenario.node[50].veinsmobility 	maxSpeed 	13.999990801015
scalar RSUExampleScenario.node[50].veinsmobility 	totalDistance 	1428.2508455561
scalar RSUExampleScenario.node[50].veinsmobility 	totalCO2Emission 	433.17577721537
scalar RSUExampleScenario.node[51].veinsmobility 	startTime 	123
scalar RSUExampleScenario.node[51].veinsmobility 	totalTime 	227
scalar RSUExampleScenario.node[51].veinsmobility 	stopTime 	350
scalar RSUExampleScenario.node[51].veinsmobility 	minSpeed 	0
scalar RSUExampleScenario.node[51].veinsmobility 	maxSpeed 	13.999778917744
scalar RSUExampleScenario.node[51].veinsmobility 	totalDistance 	1394.3749805721
scalar RSUExampleScenario.node[51].veinsmobility 	totalCO2Emission 	425.58936500497
scalar RSUExampleScenario.node[52].veinsmobility 	startTime 	125.4
scalar RSUExampleScenario.node[52].veinsmobility 	totalTime 	224.6
scalar RSUExampleScenario.node[52].veinsmobility 	stopTime 	350
scalar RSUExampleScenario.node[52].veinsmobility 	minSpeed 	0
scalar RSUExampleScenario.node[52].veinsmobility 	maxSpeed 	13.999881128911
scalar RSUExampleScenario.node[52].veinsmobility 	totalDistance 	1360.3246968269
scalar RSUExampleScenario.node[52].veinsmobility 	totalCO2Emission 	421.1328665695
scalar RSUExampleScenario.node[53].veinsmobility 	startTime 	127.8
scalar RSUExampleScenario.node[53].veinsmobility 	totalTime 	222.2
scalar RSUExampleScenario.node[53].veinsmobility 	stopTime 	350
scalar RSUExampleScenario.node[53].veinsmobility 	minSpeed 	0
scalar RSUExampleScenario.node[53].veinsmobility 	maxSpeed 	13.999906047483
scalar RSUExampleScenario.node[53].veinsmobility 	totalDistance 	1327.8819775249
scalar RSUExampleScenario.node[53].veinsmobility 	totalCO2Emission 	415.27069115069
scalar RSUExampleScenario.node[54].veinsmobility 	startTime 	130.2
scalar RSUExampleScenario.node[54].veinsmobility 	totalTime 	219.8
scalar RSUExampleScenario.node[54].veinsmobility 	stopTime 	350
scalar RSUExampleScenario.node[54].veinsmobility 	minSpeed 	0
scalar RSUExampleScenario.node[54].veinsmobility 	maxSpeed 	13.999951842579
scalar RSUExampleScenario.node[54].veinsmobility 	totalDistance 	1293.9402357505
scalar RSUExampleScenario.node[54].veinsmobility 	totalCO2Emission 	408.44018542309
scalar RSUExampleScenario.node[55].veinsmobility 	startTime 	132.6
scalar RSUExampleScenario.node[55].veinsmobility 	totalTime 	217.4
scalar RSUExampleScenario.node[55].veinsmobility 	stopTime 	350
scalar RSUExampleScenario.node[55].veinsmobility 	minSpeed 	0
scalar RSUExampleScenario.node[55].veinsmobility 	maxSpeed 	13.99988132535
scalar RSUExampleScenario.node[55].veinsmobility 	totalDistance 	1260.4883365185
scalar RSUExampleScenario.node[55].veinsmobility 	totalCO2Emission 	403.15520964881
scalar RSUExampleScenario.node[56].veinsmobility 	startTime 	135
scalar RSUExampleScenario.node[56].veinsmobility 	totalTime 	215
scalar RSUExampleScenario.node[56].veinsmobility 	stopTime 	350
scalar RSUExampleScenario.node[56].veinsmobility 	minSpeed 	0
scalar RSUExampleScenario.node[56].veinsmobility 	maxSpeed 	13.999944655325
scalar RSUExampleScenario.node[56].veinsmobility 	totalDistance 	1226.9974964753
scalar RSUExampleScenario.node[56].veinsmobility 	totalCO2Emission 	398.05036475213
scalar RSUExampleScenario.node[57].veinsmobility 	startTime 	137.4
scalar RSUExampleScenario.node[57].veinsmobility 	totalTime 	212.6
scalar RSUExampleScenario.node[57].veinsmobility 	stopTime 	350
scalar RSUExampleScenario.node[57].veinsmobility 	minSpeed 	0
scalar RSUExampleScenario.node[57].veinsmobility 	maxSpeed 	13.999901778002
scalar RSUExampleScenario.node[57].veinsmobility 	totalDistance 	1192.7428632509
scalar RSUExampleScenario.node[57].veinsmobility 	totalCO2Emission 	391.62514737397
scalar RSUExampleScenario.node[58].veinsmobility 	startTime 	139.8
scalar RSUExampleScenario.node[58].veinsmobility 	totalTime 	210.2
scalar RSUExampleScenario.node[58].veinsmobility 	stopTime 	350
scalar RSUExampleScenario.node[58].veinsmobility 	minSpeed 	0
scalar RSUExampleScenario.node[58].veinsmobility 	maxSpeed 	13.999589083579
scalar RSUExampleScenario.node[58].veinsmobility 	totalDistance 	1159.0089875395
scalar RSUExampleScenario.node[58].veinsmobility 	totalCO2Emission 	388.38578642224
scalar RSUExampleScenario.node[59].veinsmobility 	startTime 	142.2
scalar RSUExampleScenario.node[59].veinsmobility 	totalTime 	207.8
scalar RSUExampleScenario.node[59].veinsmobility 	stopTime 	350
scalar RSUExampleScenario.node[59].veinsmobility 	minSpeed 	0
scalar RSUExampleScenario.node[59].veinsmobility 	maxSpeed 	13.999708177592
scalar RSUExampleScenario.node[59].veinsmobility 	totalDistance 	1125.4895148501
scalar RSUExampleScenario.node[59].veinsmobility 	totalCO2Emission 	382.56798296101
scalar RSUExampleScenario.node[6].veinsmobility 	startTime 	14.5
scalar RSUExampleScenario.node[6].veinsmobility 	totalTime 	335.5
scalar RSUExampleScenario.node[6].veinsmobility 	stopTime 	350
scalar RSUExampleScenario.node[6].veinsmobility 	minSpeed 	0
scalar RSUExampleScenario.node[6].veinsmobility 	maxSpeed 	13.999910930889
scalar RSUExampleScenario.node[6].veinsmobility 	totalDistance 	2901.4787261522
scalar RSUExampleScenario.node[6].veinsmobility 	totalCO2Emission 	677.88681865322
scalar RSUExampleScenario.node[60].veinsmobility 	startTime 	144.7
scalar RSUExampleScenario.node[60].veinsmobility 	totalTime 	205.3
scalar RSUExampleScenario.node[60].veinsmobility 	stopTime 	350
scalar RSUExampleScenario.node[60].veinsmobility 	minSpeed 	0
scalar RSUExampleScenario.node[60].veinsmobility 	maxSpeed 	13.999890799047
scalar RSUExampleScenario.node[60].veinsmobility 	totalDistance 	1092.8847153883
scalar RSUExampleScenario.node[60].veinsmobility 	totalCO2Emission 	375.45123879954
scalar RSUExampleScenario.node[61].veinsmobility 	startTime 	147.1
scalar RSUExampleScenario.node[61].veinsmobility 	totalTime 	202.9
scalar RSUExampleScenario.node[61].veinsmobility 	stopTime 	350
scalar RSUExampleScenario.node[61].veinsmobility 	minSpeed 	0
scalar RSUExampleScenario.node[61].veinsmobility 	maxSpeed 	13.999800504264
scalar RSUExampleScenario.node[61].veinsmobility 	totalDistance 	1057.1539585624
scalar RSUExampleScenario.node[61].veinsmobility 	totalCO2Emission 	369.70355854014
scalar RSUExampleScenario.node[62].veinsmobility 	startTime 	149.5
scalar RSUExampleScenario.node[62].veinsmobility 	totalTime 	200.5
scalar RSUExampleScenario.node[62].veinsmobility 	stopTime 	350
scalar RSUExampleScenario.node[62].veinsmobility 	minSpeed 	0
scalar RSUExampleScenario.node[62].veinsmobility 	maxSpeed 	13.999713136244
scalar RSUExampleScenario.node[62].veinsmobility 	totalDistance 	1024.3568486098
scalar RSUExampleScenario.node[62].veinsmobility 	totalCO2Emission 	367.2417883147
scalar RSUExampleScenario.node[63].veinsmobility 	startTime 	151.9
scalar RSUExampleScenario.node[63].veinsmobility 	totalTime 	198.1
scalar RSUExampleScenario.node[63].veinsmobility 	stopTime 	350
scalar RSUExampleScenario.node[63].veinsmobility 	minSpeed 	0
scalar RSUExampleScenario.node[63].veinsmobility 	maxSpeed 	13.999528570494
scalar RSUExampleScenario.node[63].veinsmobility 	totalDistance 	984.79869217988
scalar RSUExampleScenario.node[63].veinsmobility 	totalCO2Emission 	353.2821745881
scalar RSUExampleScenario.node[64].veinsmobility 	startTime 	154.3
scalar RSUExampleScenario.node[64].veinsmobility 	totalTime 	195.7
scalar RSUExampleScenario.node[64].veinsmobility 	stopTime 	350
scalar RSUExampleScenario.node[64].veinsmobility 	minSpeed 	0
scalar RSUExampleScenario.node[64].veinsmobility 	maxSpeed 	13.999912016632
scalar RSUExampleScenario.node[64].veinsmobility 	totalDistance 	953.573844954
scalar RSUExampleScenario.node[64].veinsmobility 	totalCO2Emission 	338.01984819912
scalar RSUExampleScenario.node[65].veinsmobility 	startTime 	156.7
scalar RSUExampleScenario.node[65].veinsmobility 	totalTime 	193.3
scalar RSUExampleScenario.node[65].veinsmobility 	stopTime 	350
scalar RSUExampleScenario.node[65].veinsmobility 	minSpeed 	0
scalar RSUExampleScenario.node[65].veinsmobility 	maxSpeed 	13.998841852932
scalar RSUExampleScenario.node[65].veinsmobility 	totalDistance 	940.31843473288
scalar RSUExampleScenario.node[65].veinsmobility 	totalCO2Emission 	330.12044462613
scalar RSUExampleScenario.node[66].veinsmobility 	startTime 	159.1
scalar RSUExampleScenario.node[66].veinsmobility 	totalTime 	190.9
scalar RSUExampleScenario.node[66].veinsmobility 	stopTime 	350
scalar RSUExampleScenario.node[66].veinsmobility 	minSpeed 	0
scalar RSUExampleScenario.node[66].veinsmobility 	maxSpeed 	13.999743315482
scalar RSUExampleScenario.node[66].veinsmobility 	totalDistance 	927.98275600318
scalar RSUExampleScenario.node[66].veinsmobility 	totalCO2Emission 	327.83992134046
scalar RSUExampleScenario.node[67].veinsmobility 	startTime 	161.5
scalar RSUExampleScenario.node[67].veinsmobility 	totalTime 	188.5
scalar RSUExampleScenario.node[67].veinsmobility 	stopTime 	350
scalar RSUExampleScenario.node[67].veinsmobility 	minSpeed 	0
scalar RSUExampleScenario.node[67].veinsmobility 	maxSpeed 	13.999914735998
scalar RSUExampleScenario.node[67].veinsmobility 	totalDistance 	912.75078052485
scalar RSUExampleScenario.node[67].veinsmobility 	totalCO2Emission 	325.54329208688
scalar RSUExampleScenario.node[68].veinsmobility 	startTime 	163.9
scalar RSUExampleScenario.node[68].veinsmobility 	totalTime 	186.1
scalar RSUExampleScenario.node[68].veinsmobility 	stopTime 	350
scalar RSUExampleScenario.node[68].veinsmobility 	minSpeed 	0
scalar RSUExampleScenario.node[68].veinsmobility 	maxSpeed 	13.999991957282
scalar RSUExampleScenario.node[68].veinsmobility 	totalDistance 	891.631800183
scalar RSUExampleScenario.node[68].veinsmobility 	totalCO2Emission 	319.7462010895
scalar RSUExampleScenario.node[69].veinsmobility 	startTime 	166.3
scalar RSUExampleScenario.node[69].veinsmobility 	totalTime 	183.7
scalar RSUExampleScenario.node[69].veinsmobility 	stopTime 	350
scalar RSUExampleScenario.node[69].veinsmobility 	minSpeed 	0
scalar RSUExampleScenario.node[69].veinsmobility 	maxSpeed 	13.999940263017
scalar RSUExampleScenario.node[69].veinsmobility 	totalDistance 	858.19263212083
scalar RSUExampleScenario.node[69].veinsmobility 	totalCO2Emission 	315.60932480207
scalar RSUExampleScenario.node[7].veinsmobility 	startTime 	16.9
scalar RSUExampleScenario.node[7].veinsmobility 	totalTime 	333.1
scalar RSUExampleScenario.node[7].veinsmobility 	stopTime 	350
scalar RSUExampleScenario.node[7].veinsmobility 	minSpeed 	0
scalar RSUExampleScenario.node[7].veinsmobility 	maxSpeed 	13.999980952146
scalar RSUExampleScenario.node[7].veinsmobility 	totalDistance 	2889.7620545053
scalar RSUExampleScenario.node[7].veinsmobility 	totalCO2Emission 	678.78434460483
scalar RSUExampleScenario.node[70].veinsmobility 	startTime 	168.8
scalar RSUExampleScenario.node[70].veinsmobility 	totalTime 	181.2
scalar RSUExampleScenario.node[70].veinsmobility 	stopTime 	350
scalar RSUExampleScenario.node[70].veinsmobility 	minSpeed 	0
scalar RSUExampleScenario.node[70].veinsmobility 	maxSpeed 	13.999594445825
scalar RSUExampleScenario.node[70].veinsmobility 	totalDistance 	825.52371938885
scalar RSUExampleScenario.node[70].veinsmobility 	totalCO2Emission 	309.86612356926
scalar RSUExampleScenario.node[71].veinsmobility 	startTime 	171.2
scalar RSUExampleScenario.node[71].veinsmobility 	totalTime 	178.8
scalar RSUExampleScenario.node[71].veinsmobility 	stopTime 	350
scalar RSUExampleScenario.node[71].veinsmobility 	minSpeed 	0
scalar RSUExampleScenario.node[71].veinsmobility 	maxSpeed 	13.99949781674
scalar RSUExampleScenario.node[71].veinsmobility 	totalDistance 	791.69555057991
scalar RSUExampleScenario.node[71].veinsmobility 	totalCO2Emission 	304.79376332616
scalar RSUExampleScenario.node[72].veinsmobility 	startTime 	173.6
scalar RSUExampleScenario.node[72].veinsmobility 	totalTime 	176.4
scalar RSUExampleScenario.node[72].veinsmobility 	stopTime 	350
scalar RSUExampleScenario.node[72].veinsmobility 	minSpeed 	0
scalar RSUExampleScenario.node[72].veinsmobility 	maxSpeed 	13.999711178571
scalar RSUExampleScenario.node[72].veinsmobility 	totalDistance 	758.14745424094
scalar RSUExampleScenario.node[72].veinsmobility 	totalCO2Emission 	297.27057627462
scalar RSUExampleScenario.node[73].veinsmobility 	startTime 	176
scalar RSUExampleScenario.node[73].veinsmobility 	totalTime 	174
scalar RSUExampleScenario.node[73].veinsmobility 	stopTime 	350
scalar RSUExampleScenario.node[73].veinsmobility 	minSpeed 	0
scalar RSUExampleScenario.node[73].veinsmobility 	maxSpeed 	13.999387787322
scalar RSUExampleScenario.node[73].veinsmobility 	totalDistance 	724.9219181862
scalar RSUExampleScenario.node[73].veinsmobility 	totalCO2Emission 	294.25682004743
scalar RSUExampleScenario.node[74].veinsmobility 	startTime 	178.4
scalar RSUExampleScenario.node[74].veinsmobility 	totalTime 	171.6
scalar RSUExampleScenario.node[74].veinsmobility 	stopTime 	350
scalar RSUExampleScenario.node[74].veinsmobility 	minSpeed 	0
scalar RSUExampleScenario.node[74].veinsmobility 	maxSpeed 	13.999760097687
scalar RSUExampleScenario.node[74].veinsmobility 	totalDistance 	691.56338876175
scalar RSUExampleScenario.node[74].veinsmobility 	totalCO2Emission 	287.89555176948
scalar RSUExampleScenario.node[75].veinsmobility 	startTime 	180.8
scalar RSUExampleScenario.node[75].veinsmobility 	totalTime 	169.2
scalar RSUExampleScenario.node[75].veinsmobility 	stopTime 	350
scalar RSUExampleScenario.node[75].veinsmobility 	minSpeed 	0
scalar RSUExampleScenario.node[75].veinsmobility 	maxSpeed 	13.999605423901
scalar RSUExampleScenario.node[75].veinsmobility 	totalDistance 	658.33374565292
scalar RSUExampleScenario.node[75].veinsmobility 	totalCO2Emission 	282.63576620299
scalar RSUExampleScenario.node[76].veinsmobility 	startTime 	183.2
scalar RSUExampleScenario.node[76].veinsmobility 	totalTime 	166.8
scalar RSUExampleScenario.node[76].veinsmobility 	stopTime 	350
scalar RSUExampleScenario.node[76].veinsmobility 	minSpeed 	0
scalar RSUExampleScenario.node[76].veinsmobility 	maxSpeed 	13.999475918247
scalar RSUExampleScenario.node[76].veinsmobility 	totalDistance 	625.13633614557
scalar RSUExampleScenario.node[76].veinsmobility 	totalCO2Emission 	277.81442048641
scalar RSUExampleScenario.node[77].veinsmobility 	startTime 	185.6
scalar RSUExampleScenario.node[77].veinsmobility 	totalTime 	164.4
scalar RSUExampleScenario.node[77].veinsmobility 	stopTime 	350
scalar RSUExampleScenario.node[77].veinsmobility 	minSpeed 	0
scalar RSUExampleScenario.node[77].veinsmobility 	maxSpeed 	13.999905131331
scalar RSUExampleScenario.node[77].veinsmobility 	totalDistance 	591.43235681493
scalar RSUExampleScenario.node[77].veinsmobility 	totalCO2Emission 	270.66662901658
scalar RSUExampleScenario.node[78].veinsmobility 	startTime 	188
scalar RSUExampleScenario.node[78].veinsmobility 	totalTime 	162
scalar RSUExampleScenario.node[78].veinsmobility 	stopTime 	350
scalar RSUExampleScenario.node[78].veinsmobility 	minSpeed 	0
scalar RSUExampleScenario.node[78].veinsmobility 	maxSpeed 	13.999999134608
scalar RSUExampleScenario.node[78].veinsmobility 	totalDistance 	558.62664458923
scalar RSUExampleScenario.node[78].veinsmobility 	totalCO2Emission 	265.27474365904
scalar RSUExampleScenario.node[79].veinsmobility 	startTime 	190.4
scalar RSUExampleScenario.node[79].veinsmobility 	totalTime 	159.6
scalar RSUExampleScenario.node[79].veinsmobility 	stopTime 	350
scalar RSUExampleScenario.node[79].veinsmobility 	minSpeed 	0
scalar RSUExampleScenario.node[79].veinsmobility 	maxSpeed 	13.999015279005
scalar RSUExampleScenario.node[79].veinsmobility 	totalDistance 	521.90422921682
scalar RSUExampleScenario.node[79].veinsmobility 	totalCO2Emission 	260.76713141997
scalar RSUExampleScenario.node[8].veinsmobility 	startTime 	19.3
scalar RSUExampleScenario.node[8].veinsmobility 	totalTime 	330.7
scalar RSUExampleScenario.node[8].veinsmobility 	stopTime 	350
scalar RSUExampleScenario.node[8].veinsmobility 	minSpeed 	0
scalar RSUExampleScenario.node[8].veinsmobility 	maxSpeed 	13.999928484715
scalar RSUExampleScenario.node[8].veinsmobility 	totalDistance 	2861.0030430418
scalar RSUExampleScenario.node[8].veinsmobility 	totalCO2Emission 	675.29711380639
scalar RSUExampleScenario.node[80].veinsmobility 	startTime 	192.9
scalar RSUExampleScenario.node[80].veinsmobility 	totalTime 	157.1
scalar RSUExampleScenario.node[80].veinsmobility 	stopTime 	350
scalar RSUExampleScenario.node[80].veinsmobility 	minSpeed 	0
scalar RSUExampleScenario.node[80].veinsmobility 	maxSpeed 	13.99913203073
scalar RSUExampleScenario.node[80].veinsmobility 	totalDistance 	489.36455331617
scalar RSUExampleScenario.node[80].veinsmobility 	totalCO2Emission 	253.91569747075
scalar RSUExampleScenario.node[81].veinsmobility 	startTime 	195.3
scalar RSUExampleScenario.node[81].veinsmobility 	totalTime 	154.7
scalar RSUExampleScenario.node[81].veinsmobility 	stopTime 	350
scalar RSUExampleScenario.node[81].veinsmobility 	minSpeed 	0
scalar RSUExampleScenario.node[81].veinsmobility 	maxSpeed 	13.997904096618
scalar RSUExampleScenario.node[81].veinsmobility 	totalDistance 	456.33369798781
scalar RSUExampleScenario.node[81].veinsmobility 	totalCO2Emission 	248.43041536541
scalar RSUExampleScenario.node[82].veinsmobility 	startTime 	197.7
scalar RSUExampleScenario.node[82].veinsmobility 	totalTime 	152.3
scalar RSUExampleScenario.node[82].veinsmobility 	stopTime 	350
scalar RSUExampleScenario.node[82].veinsmobility 	minSpeed 	0
scalar RSUExampleScenario.node[82].veinsmobility 	maxSpeed 	13.998242024642
scalar RSUExampleScenario.node[82].veinsmobility 	totalDistance 	422.59975913868
scalar RSUExampleScenario.node[82].veinsmobility 	totalCO2Emission 	242.77288726748
scalar RSUExampleScenario.node[83].veinsmobility 	startTime 	200.1
scalar RSUExampleScenario.node[83].veinsmobility 	totalTime 	149.9
scalar RSUExampleScenario.node[83].veinsmobility 	stopTime 	350
scalar RSUExampleScenario.node[83].veinsmobility 	minSpeed 	0
scalar RSUExampleScenario.node[83].veinsmobility 	maxSpeed 	13.997947842239
scalar RSUExampleScenario.node[83].veinsmobility 	totalDistance 	389.48517252299
scalar RSUExampleScenario.node[83].veinsmobility 	totalCO2Emission 	236.53204171359
scalar RSUExampleScenario.node[84].veinsmobility 	startTime 	202.5
scalar RSUExampleScenario.node[84].veinsmobility 	totalTime 	147.5
scalar RSUExampleScenario.node[84].veinsmobility 	stopTime 	350
scalar RSUExampleScenario.node[84].veinsmobility 	minSpeed 	0
scalar RSUExampleScenario.node[84].veinsmobility 	maxSpeed 	13.991854060488
scalar RSUExampleScenario.node[84].veinsmobility 	totalDistance 	354.62074796502
scalar RSUExampleScenario.node[84].veinsmobility 	totalCO2Emission 	230.70377187239
scalar RSUExampleScenario.node[85].veinsmobility 	startTime 	204.9
scalar RSUExampleScenario.node[85].veinsmobility 	totalTime 	145.1
scalar RSUExampleScenario.node[85].veinsmobility 	stopTime 	350
scalar RSUExampleScenario.node[85].veinsmobility 	minSpeed 	0
scalar RSUExampleScenario.node[85].veinsmobility 	maxSpeed 	13.992791995958
scalar RSUExampleScenario.node[85].veinsmobility 	totalDistance 	319.74328296783
scalar RSUExampleScenario.node[85].veinsmobility 	totalCO2Emission 	224.88784401723
scalar RSUExampleScenario.node[86].veinsmobility 	startTime 	207.3
scalar RSUExampleScenario.node[86].veinsmobility 	totalTime 	142.7
scalar RSUExampleScenario.node[86].veinsmobility 	stopTime 	350
scalar RSUExampleScenario.node[86].veinsmobility 	minSpeed 	0
scalar RSUExampleScenario.node[86].veinsmobility 	maxSpeed 	13.75836614007
scalar RSUExampleScenario.node[86].veinsmobility 	totalDistance 	286.55223129639
scalar RSUExampleScenario.node[86].veinsmobility 	totalCO2Emission 	217.92999197013
scalar RSUExampleScenario.node[87].veinsmobility 	startTime 	209.7
scalar RSUExampleScenario.node[87].veinsmobility 	totalTime 	140.3
scalar RSUExampleScenario.node[87].veinsmobility 	stopTime 	350
scalar RSUExampleScenario.node[87].veinsmobility 	minSpeed 	0
scalar RSUExampleScenario.node[87].veinsmobility 	maxSpeed 	13.746533590502
scalar RSUExampleScenario.node[87].veinsmobility 	totalDistance 	248.25872538693
scalar RSUExampleScenario.node[87].veinsmobility 	totalCO2Emission 	201.1700497555
scalar RSUExampleScenario.node[88].veinsmobility 	startTime 	212.1
scalar RSUExampleScenario.node[88].veinsmobility 	totalTime 	137.9
scalar RSUExampleScenario.node[88].veinsmobility 	stopTime 	350