version 2
run statistic3-148-20150324-23:37:52-11612
attr c 10
attr configname statistic3
attr datetime 20150324-23:37:52
attr experiment statistic3
attr inifile omnetpp.ini
attr iterationvars "$p=1/10, $c=10"
attr iterationvars2 "$p=1/10, $c=10, $repetition=48"
attr measurement "$p=1/10, $c=10"
attr network RSUExampleScenario
attr p 1/10
attr processid 11612
attr repetition 48
attr replication #48
attr resultdir results
attr runnumber 148
attr seedset 148

scalar . 	c 	10
scalar RSUExampleScenario.rsu[0].appl 	NumberofCH 	8
scalar RSUExampleScenario.rsu[0].appl 	NumberofON 	71
scalar RSUExampleScenario.rsu[0].appl 	NumberofFN 	21
scalar RSUExampleScenario.rsu[0].appl 	meanClusterNodes 	8.875
scalar RSUExampleScenario.rsu[0].appl 	varClusterNodes 	1.9645292056877
scalar RSUExampleScenario.rsu[0].appl 	sumCHutility 	299.42013995724
scalar RSUExampleScenario.rsu[0].appl 	meanCHutility 	37.427517494654
scalar RSUExampleScenario.rsu[0].appl 	varCHutility 	1.0529919126553
scalar RSUExampleScenario.rsu[0].appl 	sumDiffCHutility 	-26.44650434839
scalar RSUExampleScenario.rsu[0].appl 	meanDiffCHutility 	-3.3058130435488
scalar RSUExampleScenario.rsu[0].appl 	varDiffCHutility 	0.52553149948446
scalar RSUExampleScenario.rsu[0].appl 	expectedCHutility 	272.97363560885
scalar RSUExampleScenario.rsu[0].appl 	meanExpectedCHutility 	34.121704451106
scalar RSUExampleScenario.rsu[0].appl 	varExpectedCHutility 	0.81607547481206
scalar RSUExampleScenario.node[0].veinsmobility 	startTime 	0.1
scalar RSUExampleScenario.node[0].veinsmobility 	totalTime 	349.9
scalar RSUExampleScenario.node[0].veinsmobility 	stopTime 	350
scalar RSUExampleScenario.node[0].veinsmobility 	minSpeed 	0
scalar RSUExampleScenario.node[0].veinsmobility 	maxSpeed 	13.999979083946
scalar RSUExampleScenario.node[0].veinsmobility 	totalDistance 	3136.2202401062
scalar RSUExampleScenario.node[0].veinsmobility 	totalCO2Emission 	743.95467276003
scalar RSUExampleScenario.node[1].veinsmobility 	startTime 	2.5
scalar RSUExampleScenario.node[1].veinsmobility 	totalTime 	347.5
scalar RSUExampleScenario.node[1].veinsmobility 	stopTime 	350
scalar RSUExampleScenario.node[1].veinsmobility 	minSpeed 	0
scalar RSUExampleScenario.node[1].veinsmobility 	maxSpeed 	13.999919810214
scalar RSUExampleScenario.node[1].veinsmobility 	totalDistance 	3083.3744649061
scalar RSUExampleScenario.node[1].veinsmobility 	totalCO2Emission 	737.79370830046
scalar RSUExampleScenario.node[10].veinsmobility 	startTime 	24.2
scalar RSUExampleScenario.node[10].veinsmobility 	totalTime 	325.8
scalar RSUExampleScenario.node[10].veinsmobility 	stopTime 	350
scalar RSUExampleScenario.node[10].veinsmobility 	minSpeed 	0
scalar RSUExampleScenario.node[10].veinsmobility 	maxSpeed 	13.99996466564
scalar RSUExampleScenario.node[10].veinsmobility 	totalDistance 	2793.6935702386
scalar RSUExampleScenario.node[10].veinsmobility 	totalCO2Emission 	664.57613840249
scalar RSUExampleScenario.node[11].veinsmobility 	startTime 	26.6
scalar RSUExampleScenario.node[11].veinsmobility 	totalTime 	323.4
scalar RSUExampleScenario.node[11].veinsmobility 	stopTime 	350
scalar RSUExampleScenario.node[11].veinsmobility 	minSpeed 	0
scalar RSUExampleScenario.node[11].veinsmobility 	maxSpeed 	13.999884335501
scalar RSUExampleScenario.node[11].veinsmobility 	totalDistance 	2753.6601531156
scalar RSUExampleScenario.node[11].veinsmobility 	totalCO2Emission 	655.06560443331
scalar RSUExampleScenario.node[12].veinsmobility 	startTime 	29
scalar RSUExampleScenario.node[12].veinsmobility 	totalTime 	321
scalar RSUExampleScenario.node[12].veinsmobility 	stopTime 	350
scalar RSUExampleScenario.node[12].veinsmobility 	minSpeed 	0
scalar RSUExampleScenario.node[12].veinsmobility 	maxSpeed 	13.999958885696
scalar RSUExampleScenario.node[12].veinsmobility 	totalDistance 	2723.6141767372
scalar RSUExampleScenario.node[12].veinsmobility 	totalCO2Emission 	650.47454301029
scalar RSUExampleScenario.node[13].veinsmobility 	startTime 	31.4
scalar RSUExampleScenario.node[13].veinsmobility 	totalTime 	318.6
scalar RSUExampleScenario.node[13].veinsmobility 	stopTime 	350
scalar RSUExampleScenario.node[13].veinsmobility 	minSpeed 	0
scalar RSUExampleScenario.node[13].veinsmobility 	maxSpeed 	13.999918059756
scalar RSUExampleScenario.node[13].veinsmobility 	totalDistance 	2680.7397813062
scalar RSUExampleScenario.node[13].veinsmobility 	totalCO2Emission 	647.04288552936
scalar RSUExampleScenario.node[14].veinsmobility 	startTime 	33.8
scalar RSUExampleScenario.node[14].veinsmobility 	totalTime 	316.2
scalar RSUExampleScenario.node[14].veinsmobility 	stopTime 	350
scalar RSUExampleScenario.node[14].veinsmobility 	minSpeed 	0
scalar RSUExampleScenario.node[14].veinsmobility 	maxSpeed 	13.999891031324
scalar RSUExampleScenario.node[14].veinsmobility 	totalDistance 	2654.114583864
scalar RSUExampleScenario.node[14].veinsmobility 	totalCO2Emission 	639.838374148
scalar RSUExampleScenario.node[15].veinsmobility 	startTime 	36.2
scalar RSUExampleScenario.node[15].veinsmobility 	totalTime 	313.8
scalar RSUExampleScenario.node[15].veinsmobility 	stopTime 	350
scalar RSUExampleScenario.node[15].veinsmobility 	minSpeed 	0
scalar RSUExampleScenario.node[15].veinsmobility 	maxSpeed 	13.999998055918
scalar RSUExampleScenario.node[15].veinsmobility 	totalDistance 	2614.3024408304
scalar RSUExampleScenario.node[15].veinsmobility 	totalCO2Emission 	630.88015174857
scalar RSUExampleScenario.node[16].veinsmobility 	startTime 	38.6
scalar RSUExampleScenario.node[16].veinsmobility 	totalTime 	311.4
scalar RSUExampleScenario.node[16].veinsmobility 	stopTime 	350
scalar RSUExampleScenario.node[16].veinsmobility 	minSpeed 	0
scalar RSUExampleScenario.node[16].veinsmobility 	maxSpeed 	13.999985301413
scalar RSUExampleScenario.node[16].veinsmobility 	totalDistance 	2583.4263006825
scalar RSUExampleScenario.node[16].veinsmobility 	totalCO2Emission 	627.86668532422
scalar RSUExampleScenario.node[17].veinsmobility 	startTime 	41
scalar RSUExampleScenario.node[17].veinsmobility 	totalTime 	309
scalar RSUExampleScenario.node[17].veinsmobility 	stopTime 	350
scalar RSUExampleScenario.node[17].veinsmobility 	minSpeed 	0
scalar RSUExampleScenario.node[17].veinsmobility 	maxSpeed 	13.999852686147
scalar RSUExampleScenario.node[17].veinsmobility 	totalDistance 	2538.1249451367
scalar RSUExampleScenario.node[17].veinsmobility 	totalCO2Emission 	618.93982201861
scalar RSUExampleScenario.node[18].veinsmobility 	startTime 	43.4
scalar RSUExampleScenario.node[18].veinsmobility 	totalTime 	306.6
scalar RSUExampleScenario.node[18].veinsmobility 	stopTime 	350
scalar RSUExampleScenario.node[18].veinsmobility 	minSpeed 	0
scalar RSUExampleScenario.node[18].veinsmobility 	maxSpeed 	13.999943065802
scalar RSUExampleScenario.node[18].veinsmobility 	totalDistance 	2508.0977952669
scalar RSUExampleScenario.node[18].veinsmobility 	totalCO2Emission 	613.459217421
scalar RSUExampleScenario.node[19].veinsmobility 	startTime 	45.8
scalar RSUExampleScenario.node[19].veinsmobility 	totalTime 	304.2
scalar RSUExampleScenario.node[19].veinsmobility 	stopTime 	350
scalar RSUExampleScenario.node[19].veinsmobility 	minSpeed 	0
scalar RSUExampleScenario.node[19].veinsmobility 	maxSpeed 	13.999923359377
scalar RSUExampleScenario.node[19].veinsmobility 	totalDistance 	2470.7761842723
scalar RSUExampleScenario.node[19].veinsmobility 	totalCO2Emission 	610.20075186842
scalar RSUExampleScenario.node[2].veinsmobility 	startTime 	4.9
scalar RSUExampleScenario.node[2].veinsmobility 	totalTime 	345.1
scalar RSUExampleScenario.node[2].veinsmobility 	stopTime 	350
scalar RSUExampleScenario.node[2].veinsmobility 	minSpeed 	0
scalar RSUExampleScenario.node[2].veinsmobility 	maxSpeed 	13.999993946434
scalar RSUExampleScenario.node[2].veinsmobility 	totalDistance 	3042.5044554366
scalar RSUExampleScenario.node[2].veinsmobility 	totalCO2Emission 	722.03999592463
scalar RSUExampleScenario.node[20].veinsmobility 	startTime 	48.3
scalar RSUExampleScenario.node[20].veinsmobility 	totalTime 	301.7
scalar RSUExampleScenario.node[20].veinsmobility 	stopTime 	350
scalar RSUExampleScenario.node[20].veinsmobility 	minSpeed 	0
scalar RSUExampleScenario.node[20].veinsmobility 	maxSpeed 	13.999982709626
scalar RSUExampleScenario.node[20].veinsmobility 	totalDistance 	2440.9556276476
scalar RSUExampleScenario.node[20].veinsmobility 	totalCO2Emission 	601.24541158671
scalar RSUExampleScenario.node[21].veinsmobility 	startTime 	50.7
scalar RSUExampleScenario.node[21].veinsmobility 	totalTime 	299.3
scalar RSUExampleScenario.node[21].veinsmobility 	stopTime 	350
scalar RSUExampleScenario.node[21].veinsmobility 	minSpeed 	0
scalar RSUExampleScenario.node[21].veinsmobility 	maxSpeed 	13.999860266673
scalar RSUExampleScenario.node[21].veinsmobility 	totalDistance 	2401.8244143584
scalar RSUExampleScenario.node[21].veinsmobility 	totalCO2Emission 	598.04377613964
scalar RSUExampleScenario.node[22].veinsmobility 	startTime 	53.1
scalar RSUExampleScenario.node[22].veinsmobility 	totalTime 	296.9
scalar RSUExampleScenario.node[22].veinsmobility 	stopTime 	350
scalar RSUExampleScenario.node[22].veinsmobility 	minSpeed 	0
scalar RSUExampleScenario.node[22].veinsmobility 	maxSpeed 	13.999825605019
scalar RSUExampleScenario.node[22].veinsmobility 	totalDistance 	2371.5500407807
scalar RSUExampleScenario.node[22].veinsmobility 	totalCO2Emission 	587.78850349319
scalar RSUExampleScenario.node[23].veinsmobility 	startTime 	55.5
scalar RSUExampleScenario.node[23].veinsmobility 	totalTime 	294.5
scalar RSUExampleScenario.node[23].veinsmobility 	stopTime 	350
scalar RSUExampleScenario.node[23].veinsmobility 	minSpeed 	0
scalar RSUExampleScenario.node[23].veinsmobility 	maxSpeed 	13.999700091076
scalar RSUExampleScenario.node[23].veinsmobility 	totalDistance 	2335.0783500878
scalar RSUExampleScenario.node[23].veinsmobility 	totalCO2Emission 	586.29327199378
scalar RSUExampleScenario.node[24].veinsmobility 	startTime 	57.9
scalar RSUExampleScenario.node[24].veinsmobility 	totalTime 	292.1
scalar RSUExampleScenario.node[24].veinsmobility 	stopTime 	350
scalar RSUExampleScenario.node[24].veinsmobility 	minSpeed 	0
scalar RSUExampleScenario.node[24].veinsmobility 	maxSpeed 	13.999891483013
scalar RSUExampleScenario.node[24].veinsmobility 	totalDistance 	2304.7355283982
scalar RSUExampleScenario.node[24].veinsmobility 	totalCO2Emission 	582.26795322463
scalar RSUExampleScenario.node[25].veinsmobility 	startTime 	60.3
scalar RSUExampleScenario.node[25].veinsmobility 	totalTime 	289.7
scalar RSUExampleScenario.node[25].veinsmobility 	stopTime 	350
scalar RSUExampleScenario.node[25].veinsmobility 	minSpeed 	0
scalar RSUExampleScenario.node[25].veinsmobility 	maxSpeed 	13.999910466033
scalar RSUExampleScenario.node[25].veinsmobility 	totalDistance 	2266.4350412031
scalar RSUExampleScenario.node[25].veinsmobility 	totalCO2Emission 	573.27537523773
scalar RSUExampleScenario.node[26].veinsmobility 	startTime 	62.7
scalar RSUExampleScenario.node[26].veinsmobility 	totalTime 	287.3
scalar RSUExampleScenario.node[26].veinsmobility 	stopTime 	350
scalar RSUExampleScenario.node[26].veinsmobility 	minSpeed 	0
scalar RSUExampleScenario.node[26].veinsmobility 	maxSpeed 	13.999898111308
scalar RSUExampleScenario.node[26].veinsmobility 	totalDistance 	2238.1781874561
scalar RSUExampleScenario.node[26].veinsmobility 	totalCO2Emission 	568.48200058269
scalar RSUExampleScenario.node[27].veinsmobility 	startTime 	65.1
scalar RSUExampleScenario.node[27].veinsmobility 	totalTime 	284.9
scalar RSUExampleScenario.node[27].veinsmobility 	stopTime 	350
scalar RSUExampleScenario.node[27].veinsmobility 	minSpeed 	0
scalar RSUExampleScenario.node[27].veinsmobility 	maxSpeed 	13.999515209964
scalar RSUExampleScenario.node[27].veinsmobility 	totalDistance 	2199.8963981442
scalar RSUExampleScenario.node[27].veinsmobility 	totalCO2Emission 	565.22379637869
scalar RSUExampleScenario.node[28].veinsmobility 	startTime 	67.5
scalar RSUExampleScenario.node[28].veinsmobility 	totalTime 	282.5
scalar RSUExampleScenario.node[28].veinsmobility 	stopTime 	350
scalar RSUExampleScenario.node[28].veinsmobility 	minSpeed 	0
scalar RSUExampleScenario.node[28].veinsmobility 	maxSpeed 	13.999986071491
scalar RSUExampleScenario.node[28].veinsmobility 	totalDistance 	2169.0128203403
scalar RSUExampleScenario.node[28].veinsmobility 	totalCO2Emission 	558.38191931327
scalar RSUExampleScenario.node[29].veinsmobility 	startTime 	69.9
scalar RSUExampleScenario.node[29].veinsmobility 	totalTime 	280.1
scalar RSUExampleScenario.node[29].veinsmobility 	stopTime 	350
scalar RSUExampleScenario.node[29].veinsmobility 	minSpeed 	0
scalar RSUExampleScenario.node[29].veinsmobility 	maxSpeed 	13.999959202118
scalar RSUExampleScenario.node[29].veinsmobility 	totalDistance 	2133.1675742453
scalar RSUExampleScenario.node[29].veinsmobility 	totalCO2Emission 	549.46868669361
scalar RSUExampleScenario.node[3].veinsmobility 	startTime 	7.3
scalar RSUExampleScenario.node[3].veinsmobility 	totalTime 	342.7
scalar RSUExampleScenario.node[3].veinsmobility 	stopTime 	350
scalar RSUExampleScenario.node[3].veinsmobility 	minSpeed 	0
scalar RSUExampleScenario.node[3].veinsmobility 	maxSpeed 	13.999969569356
scalar RSUExampleScenario.node[3].veinsmobility 	totalDistance 	2993.539463878
scalar RSUExampleScenario.node[3].veinsmobility 	totalCO2Emission 	718.02819419
scalar RSUExampleScenario.node[30].veinsmobility 	startTime 	72.4
scalar RSUExampleScenario.node[30].veinsmobility 	totalTime 	277.6
scalar RSUExampleScenario.node[30].veinsmobility 	stopTime 	350
scalar RSUExampleScenario.node[30].veinsmobility 	minSpeed 	0
scalar RSUExampleScenario.node[30].veinsmobility 	maxSpeed 	13.999976411131
scalar RSUExampleScenario.node[30].veinsmobility 	totalDistance 	2102.8714348203
scalar RSUExampleScenario.node[30].veinsmobility 	totalCO2Emission 	547.96315816088
scalar RSUExampleScenario.node[31].veinsmobility 	startTime 	74.8
scalar RSUExampleScenario.node[31].veinsmobility 	totalTime 	275.2
scalar RSUExampleScenario.node[31].veinsmobility 	stopTime 	350
scalar RSUExampleScenario.node[31].veinsmobility 	minSpeed 	0
scalar RSUExampleScenario.node[31].veinsmobility 	maxSpeed 	13.999845925248
scalar RSUExampleScenario.node[31].veinsmobility 	totalDistance 	2066.804726225
scalar RSUExampleScenario.node[31].veinsmobility 	totalCO2Emission 	540.70641732139
scalar RSUExampleScenario.node[32].veinsmobility 	startTime 	77.2
scalar RSUExampleScenario.node[32].veinsmobility 	totalTime 	272.8
scalar RSUExampleScenario.node[32].veinsmobility 	stopTime 	350
scalar RSUExampleScenario.node[32].veinsmobility 	minSpeed 	0
scalar RSUExampleScenario.node[32].veinsmobility 	maxSpeed 	13.999792161772
scalar RSUExampleScenario.node[32].veinsmobility 	totalDistance 	2032.7120331958
scalar RSUExampleScenario.node[32].veinsmobility 	totalCO2Emission 	538.06501637336
scalar RSUExampleScenario.node[33].veinsmobility 	startTime 	79.6
scalar RSUExampleScenario.node[33].veinsmobility 	totalTime 	270.4
scalar RSUExampleScenario.node[33].veinsmobility 	stopTime 	350
scalar RSUExampleScenario.node[33].veinsmobility 	minSpeed 	0
scalar RSUExampleScenario.node[33].veinsmobility 	maxSpeed 	13.999639440514
scalar RSUExampleScenario.node[33].veinsmobility 	totalDistance 	2000.1084704312
scalar RSUExampleScenario.node[33].veinsmobility 	totalCO2Emission 	532.51434707156
scalar RSUExampleScenario.node[34].veinsmobility 	startTime 	82
scalar RSUExampleScenario.node[34].veinsmobility 	totalTime 	268
scalar RSUExampleScenario.node[34].veinsmobility 	stopTime 	350
scalar RSUExampleScenario.node[34].veinsmobility 	minSpeed 	0
scalar RSUExampleScenario.node[34].veinsmobility 	maxSpeed 	13.999907470713
scalar RSUExampleScenario.node[34].veinsmobility 	totalDistance 	1965.8016674571
scalar RSUExampleScenario.node[34].veinsmobility 	totalCO2Emission 	523.82734295806
scalar RSUExampleScenario.node[35].veinsmobility 	startTime 	84.4
scalar RSUExampleScenario.node[35].veinsmobility 	totalTime 	265.6
scalar RSUExampleScenario.node[35].veinsmobility 	stopTime 	350
scalar RSUExampleScenario.node[35].veinsmobility 	minSpeed 	0
scalar RSUExampleScenario.node[35].veinsmobility 	maxSpeed 	13.999951348756
scalar RSUExampleScenario.node[35].veinsmobility 	totalDistance 	1932.8185623911
scalar RSUExampleScenario.node[35].veinsmobility 	totalCO2Emission 	519.96166728239
scalar RSUExampleScenario.node[36].veinsmobility 	startTime 	86.8
scalar RSUExampleScenario.node[36].veinsmobility 	totalTime 	263.2
scalar RSUExampleScenario.node[36].veinsmobility 	stopTime 	350
scalar RSUExampleScenario.node[36].veinsmobility 	minSpeed 	0
scalar RSUExampleScenario.node[36].veinsmobility 	maxSpeed 	13.999804402993
scalar RSUExampleScenario.node[36].veinsmobility 	totalDistance 	1899.0694741498
scalar RSUExampleScenario.node[36].veinsmobility 	totalCO2Emission 	514.44738194522
scalar RSUExampleScenario.node[37].veinsmobility 	startTime 	89.2
scalar RSUExampleScenario.node[37].veinsmobility 	totalTime 	260.8
scalar RSUExampleScenario.node[37].veinsmobility 	stopTime 	350
scalar RSUExampleScenario.node[37].veinsmobility 	minSpeed 	0
scalar RSUExampleScenario.node[37].veinsmobility 	maxSpeed 	13.999959229359
scalar RSUExampleScenario.node[37].veinsmobility 	totalDistance 	1866.2671007475
scalar RSUExampleScenario.node[37].veinsmobility 	totalCO2Emission 	508.08304073995
scalar RSUExampleScenario.node[38].veinsmobility 	startTime 	91.6
scalar RSUExampleScenario.node[38].veinsmobility 	totalTime 	258.4
scalar RSUExampleScenario.node[38].veinsmobility 	stopTime 	350
scalar RSUExampleScenario.node[38].veinsmobility 	minSpeed 	0
scalar RSUExampleScenario.node[38].veinsmobility 	maxSpeed 	13.999793599653
scalar RSUExampleScenario.node[38].veinsmobility 	totalDistance 	1832.8725061257
scalar RSUExampleScenario.node[38].veinsmobility 	totalCO2Emission 	503.25113340128
scalar RSUExampleScenario.node[39].veinsmobility 	startTime 	94
scalar RSUExampleScenario.node[39].veinsmobility 	totalTime 	256
scalar RSUExampleScenario.node[39].veinsmobility 	stopTime 	350
scalar RSUExampleScenario.node[39].veinsmobility 	minSpeed 	0
scalar RSUExampleScenario.node[39].veinsmobility 	maxSpeed 	13.9999401121
scalar RSUExampleScenario.node[39].veinsmobility 	totalDistance 	1798.4940580304
scalar RSUExampleScenario.node[39].veinsmobility 	totalCO2Emission 	496.20558105719
scalar RSUExampleScenario.node[4].veinsmobility 	startTime 	9.7
scalar RSUExampleScenario.node[4].veinsmobility 	totalTime 	340.3
scalar RSUExampleScenario.node[4].veinsmobility 	stopTime 	350
scalar RSUExampleScenario.node[4].veinsmobility 	minSpeed 	0
scalar RSUExampleScenario.node[4].veinsmobility 	maxSpeed 	13.999971885735
scalar RSUExampleScenario.node[4].veinsmobility 	totalDistance 	2950.6524443197
scalar RSUExampleScenario.node[4].veinsmobility 	totalCO2Emission 	701.71636592547
scalar RSUExampleScenario.node[40].veinsmobility 	startTime 	96.5
scalar RSUExampleScenario.node[40].veinsmobility 	totalTime 	253.5
scalar RSUExampleScenario.node[40].veinsmobility 	stopTime 	350
scalar RSUExampleScenario.node[40].veinsmobility 	minSpeed 	0
scalar RSUExampleScenario.node[40].veinsmobility 	maxSpeed 	13.999976634115
scalar RSUExampleScenario.node[40].veinsmobility 	totalDistance 	1765.1158579973
scalar RSUExampleScenario.node[40].veinsmobility 	totalCO2Emission 	490.18011171245
scalar RSUExampleScenario.node[41].veinsmobility 	startTime 	98.9
scalar RSUExampleScenario.node[41].veinsmobility 	totalTime 	251.1
scalar RSUExampleScenario.node[41].veinsmobility 	stopTime 	350
scalar RSUExampleScenario.node[41].veinsmobility 	minSpeed 	0
scalar RSUExampleScenario.node[41].veinsmobility 	maxSpeed 	13.999910131935
scalar RSUExampleScenario.node[41].veinsmobility 	totalDistance 	1731.1331377413
scalar RSUExampleScenario.node[41].veinsmobility 	totalCO2Emission 	481.87794919387
scalar RSUExampleScenario.node[42].veinsmobility 	startTime 	101.3
scalar RSUExampleScenario.node[42].veinsmobility 	totalTime 	248.7
scalar RSUExampleScenario.node[42].veinsmobility 	stopTime 	350
scalar RSUExampleScenario.node[42].veinsmobility 	minSpeed 	0
scalar RSUExampleScenario.node[42].veinsmobility 	maxSpeed 	13.999991879282
scalar RSUExampleScenario.node[42].veinsmobility 	totalDistance 	1696.6641919635
scalar RSUExampleScenario.node[42].veinsmobility 	totalCO2Emission 	478.30020406841
scalar RSUExampleScenario.node[43].veinsmobility 	startTime 	103.7
scalar RSUExampleScenario.node[43].veinsmobility 	totalTime 	246.3
scalar RSUExampleScenario.node[43].veinsmobility 	stopTime 	350
scalar RSUExampleScenario.node[43].veinsmobility 	minSpeed 	0
scalar RSUExampleScenario.node[43].veinsmobility 	maxSpeed 	13.999807636945
scalar RSUExampleScenario.node[43].veinsmobility 	totalDistance 	1660.955698188
scalar RSUExampleScenario.node[43].veinsmobility 	totalCO2Emission 	471.86121978126
scalar RSUExampleScenario.node[44].veinsmobility 	startTime 	106.1
scalar RSUExampleScenario.node[44].veinsmobility 	totalTime 	243.9
scalar RSUExampleScenario.node[44].veinsmobility 	stopTime 	350
scalar RSUExampleScenario.node[44].veinsmobility 	minSpeed 	0
scalar RSUExampleScenario.node[44].veinsmobility 	maxSpeed 	13.999979299575
scalar RSUExampleScenario.node[44].veinsmobility 	totalDistance 	1628.0542241916
scalar RSUExampleScenario.node[44].veinsmobility 	totalCO2Emission 	467.35922540576
scalar RSUExampleScenario.node[45].veinsmobility 	startTime 	108.5
scalar RSUExampleScenario.node[45].veinsmobility 	totalTime 	241.5
scalar RSUExampleScenario.node[45].veinsmobility 	stopTime 	350
scalar RSUExampleScenario.node[45].veinsmobility 	minSpeed 	0
scalar RSUExampleScenario.node[45].veinsmobility 	maxSpeed 	13.999703704619
scalar RSUExampleScenario.node[45].veinsmobility 	totalDistance 	1595.0790329494
scalar RSUExampleScenario.node[45].veinsmobility 	totalCO2Emission 	458.95069039106
scalar RSUExampleScenario.node[46].veinsmobility 	startTime 	110.9
scalar RSUExampleScenario.node[46].veinsmobility 	totalTime 	239.1
scalar RSUExampleScenario.node[46].veinsmobility 	stopTime 	350
scalar RSUExampleScenario.node[46].veinsmobility 	minSpeed 	0
scalar RSUExampleScenario.node[46].veinsmobility 	maxSpeed 	13.999720788808
scalar RSUExampleScenario.node[46].veinsmobility 	totalDistance 	1562.3750514755
scalar RSUExampleScenario.node[46].veinsmobility 	totalCO2Emission 	457.42206720189
scalar RSUExampleScenario.node[47].veinsmobility 	startTime 	113.3
scalar RSUExampleScenario.node[47].veinsmobility 	totalTime 	236.7
scalar RSUExampleScenario.node[47].veinsmobility 	stopTime 	350
scalar RSUExampleScenario.node[47].veinsmobility 	minSpeed 	0
scalar RSUExampleScenario.node[47].veinsmobility 	maxSpeed 	13.999902654835
scalar RSUExampleScenario.node[47].veinsmobility 	totalDistance 	1526.002571285
scalar RSUExampleScenario.node[47].veinsmobility 	totalCO2Emission 	450.69585624897
scalar RSUExampleScenario.node[48].veinsmobility 	startTime 	115.7
scalar RSUExampleScenario.node[48].veinsmobility 	totalTime 	234.3
scalar RSUExampleScenario.node[48].veinsmobility 	stopTime 	350
scalar RSUExampleScenario.node[48].veinsmobility 	minSpeed 	0
scalar RSUExampleScenario.node[48].veinsmobility 	maxSpeed 	13.999940229147
scalar RSUExampleScenario.node[48].veinsmobility 	totalDistance 	1495.6975866139
scalar RSUExampleScenario.node[48].veinsmobility 	totalCO2Emission 	444.27628514523
scalar RSUExampleScenario.node[49].veinsmobility 	startTime 	118.1
scalar RSUExampleScenario.node[49].veinsmobility 	totalTime 	231.9
scalar RSUExampleScenario.node[49].veinsmobility 	stopTime 	350
scalar RSUExampleScenario.node[49].veinsmobility 	minSpeed 	0
scalar RSUExampleScenario.node[49].veinsmobility 	maxSpeed 	13.999964165583
scalar RSUExampleScenario.node[49].veinsmobility 	totalDistance 	1461.8538327485
scalar RSUExampleScenario.node[49].veinsmobility 	totalCO2Emission 	439.16906355964
scalar RSUExampleScenario.node[5].veinsmobility 	startTime 	12.1
scalar RSUExampleScenario.node[5].veinsmobility 	totalTime 	337.9
scalar RSUExampleScenario.node[5].veinsmobility 	stopTime 	350
scalar RSUExampleScenario.node[5].veinsmobility 	minSpeed 	0
scalar RSUExampleScenario.node[5].veinsmobility 	maxSpeed 	13.9999050849
scalar RSUExampleScenario.node[5].veinsmobility 	totalDistance 	2914.6053952038
scalar RSUExampleScenario.node[5].veinsmobility 	totalCO2Emission 	684.43970243512
scalar RSUExampleScenario.node[50].veinsmobility 	startTime 	120.6
scalar RSUExampleScenario.node[50].veinsmobility 	totalTime 	229.4
scalar RSUExampleScenario.node[50].veinsmobility 	stopTime 	350
scalar RSUExampleScenario.node[50].veinsmobility 	minSpeed 	0
scalar RSUExampleScenario.node[50].veinsmobility 	maxSpeed 	13.999991293808
scalar RSUExampleScenario.node[50].veinsmobility 	totalDistance 	1428.6351406429
scalar RSUExampleScenario.node[50].veinsmobility 	totalCO2Emission 	433.08312398387
scalar RSUExampleScenario.node[51].veinsmobility 	startTime 	123
scalar RSUExampleScenario.node[51].veinsmobility 	totalTime 	227
scalar RSUExampleScenario.node[51].veinsmobility 	stopTime 	350
scalar RSUExampleScenario.node[51].veinsmobility 	minSpeed 	0
scalar RSUExampleScenario.node[51].veinsmobility 	maxSpeed 	13.999976001182
scalar RSUExampleScenario.node[51].veinsmobility 	totalDistance 	1394.9071549202
scalar RSUExampleScenario.node[51].veinsmobility 	totalCO2Emission 	426.881695515
scalar RSUExampleScenario.node[52].veinsmobility 	startTime 	125.4
scalar RSUExampleScenario.node[52].veinsmobility 	totalTime 	224.6
scalar RSUExampleScenario.node[52].veinsmobility 	stopTime 	350
scalar RSUExampleScenario.node[52].veinsmobility 	minSpeed 	0
scalar RSUExampleScenario.node[52].veinsmobility 	maxSpeed 	13.999996936517
scalar RSUExampleScenario.node[52].veinsmobility 	totalDistance 	1359.8720926207
scalar RSUExampleScenario.node[52].veinsmobility 	totalCO2Emission 	420.66587134215
scalar RSUExampleScenario.node[53].veinsmobility 	startTime 	127.8
scalar RSUExampleScenario.node[53].veinsmobility 	totalTime 	222.2
scalar RSUExampleScenario.node[53].veinsmobility 	stopTime 	350
scalar RSUExampleScenario.node[53].veinsmobility 	minSpeed 	0
scalar RSUExampleScenario.node[53].veinsmobility 	maxSpeed 	13.999999561054
scalar RSUExampleScenario.node[53].veinsmobility 	totalDistance 	1325.948878444
scalar RSUExampleScenario.node[53].veinsmobility 	totalCO2Emission 	414.79273983811
scalar RSUExampleScenario.node[54].veinsmobility 	startTime 	130.2
scalar RSUExampleScenario.node[54].veinsmobility 	totalTime 	219.8
scalar RSUExampleScenario.node[54].veinsmobility 	stopTime 	350
scalar RSUExampleScenario.node[54].veinsmobility 	minSpeed 	0
scalar RSUExampleScenario.node[54].veinsmobility 	maxSpeed 	13.999790771988
scalar RSUExampleScenario.node[54].veinsmobility 	totalDistance 	1292.4709453243
scalar RSUExampleScenario.node[54].veinsmobility 	totalCO2Emission 	410.78737472618
scalar RSUExampleScenario.node[55].veinsmobility 	startTime 	132.6
scalar RSUExampleScenario.node[55].veinsmobility 	totalTime 	217.4
scalar RSUExampleScenario.node[55].veinsmobility 	stopTime 	350
scalar RSUExampleScenario.node[55].veinsmobility 	minSpeed 	0
scalar RSUExampleScenario.node[55].veinsmobility 	maxSpeed 	13.999945528163
scalar RSUExampleScenario.node[55].veinsmobility 	totalDistance 	1258.1234266447
scalar RSUExampleScenario.node[55].veinsmobility 	totalCO2Emission 	404.40449842839
scalar RSUExampleScenario.node[56].veinsmobility 	startTime 	135
scalar RSUExampleScenario.node[56].veinsmobility 	totalTime 	215
scalar RSUExampleScenario.node[56].veinsmobility 	stopTime 	350
scalar RSUExampleScenario.node[56].veinsmobility 	minSpeed 	0
scalar RSUExampleScenario.node[56].veinsmobility 	maxSpeed 	13.999777241533
scalar RSUExampleScenario.node[56].veinsmobility 	totalDistance 	1223.7410215936
scalar RSUExampleScenario.node[56].veinsmobility 	totalCO2Emission 	398.44022480936
scalar RSUExampleScenario.node[57].veinsmobility 	startTime 	137.4
scalar RSUExampleScenario.node[57].veinsmobility 	totalTime 	212.6
scalar RSUExampleScenario.node[57].veinsmobility 	stopTime 	350
scalar RSUExampleScenario.node[57].veinsmobility 	minSpeed 	0
scalar RSUExampleScenario.node[57].veinsmobility 	maxSpeed 	13.999279499373
scalar RSUExampleScenario.node[57].veinsmobility 	totalDistance 	1191.9158679076
scalar RSUExampleScenario.node[57].veinsmobility 	totalCO2Emission 	393.69538456215
scalar RSUExampleScenario.node[58].veinsmobility 	startTime 	139.8
scalar RSUExampleScenario.node[58].veinsmobility 	totalTime 	210.2
scalar RSUExampleScenario.node[58].veinsmobility 	stopTime 	350
scalar RSUExampleScenario.node[58].veinsmobility 	minSpeed 	0
scalar RSUExampleScenario.node[58].veinsmobility 	maxSpeed 	13.999694114451
scalar RSUExampleScenario.node[58].veinsmobility 	totalDistance 	1157.8734616858
scalar RSUExampleScenario.node[58].veinsmobility 	totalCO2Emission 	388.90680254026
scalar RSUExampleScenario.node[59].veinsmobility 	startTime 	142.2
scalar RSUExampleScenario.node[59].veinsmobility 	totalTime 	207.8
scalar RSUExampleScenario.node[59].veinsmobility 	stopTime 	350
scalar RSUExampleScenario.node[59].veinsmobility 	minSpeed 	0
scalar RSUExampleScenario.node[59].veinsmobility 	maxSpeed 	13.999972342297
scalar RSUExampleScenario.node[59].veinsmobility 	totalDistance 	1124.3651744316
scalar RSUExampleScenario.node[59].veinsmobility 	totalCO2Emission 	381.98531362524
scalar RSUExampleScenario.node[6].veinsmobility 	startTime 	14.5
scalar RSUExampleScenario.node[6].veinsmobility 	totalTime 	335.5
scalar RSUExampleScenario.node[6].veinsmobility 	stopTime 	350
scalar RSUExampleScenario.node[6].veinsmobility 	minSpeed 	0
scalar RSUExampleScenario.node[6].veinsmobility 	maxSpeed 	13.999925119006
scalar RSUExampleScenario.node[6].veinsmobility 	totalDistance 	2906.3618485046
scalar RSUExampleScenario.node[6].veinsmobility 	totalCO2Emission 	679.57603199141
scalar RSUExampleScenario.node[60].veinsmobility 	startTime 	144.7
scalar RSUExampleScenario.node[60].veinsmobility 	totalTime 	205.3
scalar RSUExampleScenario.node[60].veinsmobility 	stopTime 	350
scalar RSUExampleScenario.node[60].veinsmobility 	minSpeed 	0
scalar RSUExampleScenario.node[60].veinsmobility 	maxSpeed 	13.99975427001
scalar RSUExampleScenario.node[60].veinsmobility 	totalDistance 	1089.8352678656
scalar RSUExampleScenario.node[60].veinsmobility 	totalCO2Emission 	376.07125300913
scalar RSUExampleScenario.node[61].veinsmobility 	startTime 	147.1
scalar RSUExampleScenario.node[61].veinsmobility 	totalTime 	202.9
scalar RSUExampleScenario.node[61].veinsmobility 	stopTime 	350
scalar RSUExampleScenario.node[61].veinsmobility 	minSpeed 	0
scalar RSUExampleScenario.node[61].veinsmobility 	maxSpeed 	13.999883395014
scalar RSUExampleScenario.node[61].veinsmobility 	totalDistance 	1057.143521166
scalar RSUExampleScenario.node[61].veinsmobility 	totalCO2Emission 	369.03924940431
scalar RSUExampleScenario.node[62].veinsmobility 	startTime 	149.5
scalar RSUExampleScenario.node[62].veinsmobility 	totalTime 	200.5
scalar RSUExampleScenario.node[62].veinsmobility 	stopTime 	350
scalar RSUExampleScenario.node[62].veinsmobility 	minSpeed 	0
scalar RSUExampleScenario.node[62].veinsmobility 	maxSpeed 	13.999342224956
scalar RSUExampleScenario.node[62].veinsmobility 	totalDistance 	1023.7547185935
scalar RSUExampleScenario.node[62].veinsmobility 	totalCO2Emission 	364.36238350442
scalar RSUExampleScenario.node[63].veinsmobility 	startTime 	151.9
scalar RSUExampleScenario.node[63].veinsmobility 	totalTime 	198.1
scalar RSUExampleScenario.node[63].veinsmobility 	stopTime 	350
scalar RSUExampleScenario.node[63].veinsmobility 	minSpeed 	0
scalar RSUExampleScenario.node[63].veinsmobility 	maxSpeed 	13.999703585969
scalar RSUExampleScenario.node[63].veinsmobility 	totalDistance 	983.73958926716
scalar RSUExampleScenario.node[63].veinsmobility 	totalCO2Emission 	352.39181080704
scalar RSUExampleScenario.node[64].veinsmobility 	startTime 	154.3
scalar RSUExampleScenario.node[64].veinsmobility 	totalTime 	195.7
scalar RSUExampleScenario.node[64].veinsmobility 	stopTime 	350
scalar RSUExampleScenario.node[64].veinsmobility 	minSpeed 	0
scalar RSUExampleScenario.node[64].veinsmobility 	maxSpeed 	13.999785216239
scalar RSUExampleScenario.node[64].veinsmobility 	totalDistance 	953.89739537987
scalar RSUExampleScenario.node[64].veinsmobility 	totalCO2Emission 	338.58219741321
scalar RSUExampleScenario.node[65].veinsmobility 	startTime 	156.7
scalar RSUExampleScenario.node[65].veinsmobility 	totalTime 	193.3
scalar RSUExampleScenario.node[65].veinsmobility 	stopTime 	350
scalar RSUExampleScenario.node[65].veinsmobility 	minSpeed 	0
scalar RSUExampleScenario.node[65].veinsmobility 	maxSpeed 	13.999364574533
scalar RSUExampleScenario.node[65].veinsmobility 	totalDistance 	940.37682710411
scalar RSUExampleScenario.node[65].veinsmobility 	totalCO2Emission 	330.51761285004
scalar RSUExampleScenario.node[66].veinsmobility 	startTime 	159.1
scalar RSUExampleScenario.node[66].veinsmobility 	totalTime 	190.9
scalar RSUExampleScenario.node[66].veinsmobility 	stopTime 	350
scalar RSUExampleScenario.node[66].veinsmobility 	minSpeed 	0
scalar RSUExampleScenario.node[66].veinsmobility 	maxSpeed 	13.999901270922
scalar RSUExampleScenario.node[66].veinsmobility 	totalDistance 	928.23430768783
scalar RSUExampleScenario.node[66].veinsmobility 	totalCO2Emission 	325.86395183428
scalar RSUExampleScenario.node[67].veinsmobility 	startTime 	161.5
scalar RSUExampleScenario.node[67].veinsmobility 	totalTime 	188.5
scalar RSUExampleScenario.node[67].veinsmobility 	stopTime 	350
scalar RSUExampleScenario.node[67].veinsmobility 	minSpeed 	0
scalar RSUExampleScenario.node[67].veinsmobility 	maxSpeed 	13.999876988886
scalar RSUExampleScenario.node[67].veinsmobility 	totalDistance 	913.0162707335
scalar RSUExampleScenario.node[67].veinsmobility 	totalCO2Emission 	325.21447978725
scalar RSUExampleScenario.node[68].veinsmobility 	startTime 	163.9
scalar RSUExampleScenario.node[68].veinsmobility 	totalTime 	186.1
scalar RSUExampleScenario.node[68].veinsmobility 	stopTime 	350
scalar RSUExampleScenario.node[68].veinsmobility 	minSpeed 	0
scalar RSUExampleScenario.node[68].veinsmobility 	maxSpeed 	13.999096306912
scalar RSUExampleScenario.node[68].veinsmobility 	totalDistance 	894.09690104094
scalar RSUExampleScenario.node[68].veinsmobility 	totalCO2Emission 	321.65724474179
scalar RSUExampleScenario.node[69].veinsmobility 	startTime 	166.3
scalar RSUExampleScenario.node[69].veinsmobility 	totalTime 	183.7
scalar RSUExampleScenario.node[69].veinsmobility 	stopTime 	350
scalar RSUExampleScenario.node[69].veinsmobility 	minSpeed 	0
scalar RSUExampleScenario.node[69].veinsmobility 	maxSpeed 	13.999824539525
scalar RSUExampleScenario.node[69].veinsmobility 	totalDistance 	858.71291205061
scalar RSUExampleScenario.node[69].veinsmobility 	totalCO2Emission 	315.00923841826
scalar RSUExampleScenario.node[7].veinsmobility 	startTime 	16.9
scalar RSUExampleScenario.node[7].veinsmobility 	totalTime 	333.1
scalar RSUExampleScenario.node[7].veinsmobility 	stopTime 	350
scalar RSUExampleScenario.node[7].veinsmobility 	minSpeed 	0
scalar RSUExampleScenario.node[7].veinsmobility 	maxSpeed 	13.99997222973
scalar RSUExampleScenario.node[7].veinsmobility 	totalDistance 	2885.770724801
scalar RSUExampleScenario.node[7].veinsmobility 	totalCO2Emission 	678.45640823011
scalar RSUExampleScenario.node[70].veinsmobility 	startTime 	168.8
scalar RSUExampleScenario.node[70].veinsmobility 	totalTime 	181.2
scalar RSUExampleScenario.node[70].veinsmobility 	stopTime 	350
scalar RSUExampleScenario.node[70].veinsmobility 	minSpeed 	0
scalar RSUExampleScenario.node[70].veinsmobility 	maxSpeed 	13.999776923719
scalar RSUExampleScenario.node[70].veinsmobility 	totalDistance 	827.63123314809
scalar RSUExampleScenario.node[70].veinsmobility 	totalCO2Emission 	311.76203923684
scalar RSUExampleScenario.node[71].veinsmobility 	startTime 	171.2
scalar RSUExampleScenario.node[71].veinsmobility 	totalTime 	178.8
scalar RSUExampleScenario.node[71].veinsmobility 	stopTime 	350
scalar RSUExampleScenario.node[71].veinsmobility 	minSpeed 	0
scalar RSUExampleScenario.node[71].veinsmobility 	maxSpeed 	13.999660569928
scalar RSUExampleScenario.node[71].veinsmobility 	totalDistance 	792.19227759162
scalar RSUExampleScenario.node[71].veinsmobility 	totalCO2Emission 	305.70447536881
scalar RSUExampleScenario.node[72].veinsmobility 	startTime 	173.6
scalar RSUExampleScenario.node[72].veinsmobility 	totalTime 	176.4
scalar RSUExampleScenario.node[72].veinsmobility 	stopTime 	350
scalar RSUExampleScenario.node[72].veinsmobility 	minSpeed 	0
scalar RSUExampleScenario.node[72].veinsmobility 	maxSpeed 	13.998995896115
scalar RSUExampleScenario.node[72].veinsmobility 	totalDistance 	759.77749833482
scalar RSUExampleScenario.node[72].veinsmobility 	totalCO2Emission 	300.33634811074
scalar RSUExampleScenario.node[73].veinsmobility 	startTime 	176
scalar RSUExampleScenario.node[73].veinsmobility 	totalTime 	174
scalar RSUExampleScenario.node[73].veinsmobility 	stopTime 	350
scalar RSUExampleScenario.node[73].veinsmobility 	minSpeed 	0
scalar RSUExampleScenario.node[73].veinsmobility 	maxSpeed 	13.999854332514
scalar RSUExampleScenario.node[73].veinsmobility 	totalDistance 	726.84707191357
scalar RSUExampleScenario.node[73].veinsmobility 	totalCO2Emission 	292.6498561356
scalar RSUExampleScenario.node[74].veinsmobility 	startTime 	178.4
scalar RSUExampleScenario.node[74].veinsmobility 	totalTime 	171.6
scalar RSUExampleScenario.node[74].veinsmobility 	stopTime 	350
scalar RSUExampleScenario.node[74].veinsmobility 	minSpeed 	0
scalar RSUExampleScenario.node[74].veinsmobility 	maxSpeed 	13.998529913242
scalar RSUExampleScenario.node[74].veinsmobility 	totalDistance 	693.75248654488
scalar RSUExampleScenario.node[74].veinsmobility 	totalCO2Emission 	288.08009080213
scalar RSUExampleScenario.node[75].veinsmobility 	startTime 	180.8
scalar RSUExampleScenario.node[75].veinsmobility 	totalTime 	169.2
scalar RSUExampleScenario.node[75].veinsmobility 	stopTime 	350
scalar RSUExampleScenario.node[75].veinsmobility 	minSpeed 	0
scalar RSUExampleScenario.node[75].veinsmobility 	maxSpeed 	13.999658726275
scalar RSUExampleScenario.node[75].veinsmobility 	totalDistance 	658.33058740682
scalar RSUExampleScenario.node[75].veinsmobility 	totalCO2Emission 	282.92322933664
scalar RSUExampleScenario.node[76].veinsmobility 	startTime 	183.2
scalar RSUExampleScenario.node[76].veinsmobility 	totalTime 	166.8
scalar RSUExampleScenario.node[76].veinsmobility 	stopTime 	350
scalar RSUExampleScenario.node[76].veinsmobility 	minSpeed 	0
scalar RSUExampleScenario.node[76].veinsmobility 	maxSpeed 	13.999917600984
scalar RSUExampleScenario.node[76].veinsmobility 	totalDistance 	626.40179703547
scalar RSUExampleScenario.node[76].veinsmobility 	totalCO2Emission 	274.98997260193
scalar RSUExampleScenario.node[77].veinsmobility 	startTime 	185.6
scalar RSUExampleScenario.node[77].veinsmobility 	totalTime 	164.4
scalar RSUExampleScenario.node[77].veinsmobility 	stopTime 	350
scalar RSUExampleScenario.node[77].veinsmobility 	minSpeed 	0
scalar RSUExampleScenario.node[77].veinsmobility 	maxSpeed 	13.999299431476
scalar RSUExampleScenario.node[77].veinsmobility 	totalDistance 	593.21756290393
scalar RSUExampleScenario.node[77].veinsmobility 	totalCO2Emission 	270.0184301142
scalar RSUExampleScenario.node[78].veinsmobility 	startTime 	188
scalar RSUExampleScenario.node[78].veinsmobility 	totalTime 	162
scalar RSUExampleScenario.node[78].veinsmobility 	stopTime 	350
scalar RSUExampleScenario.node[78].veinsmobility 	minSpeed 	0
scalar RSUExampleScenario.node[78].veinsmobility 	maxSpeed 	13.999113756465
scalar RSUExampleScenario.node[78].veinsmobility 	totalDistance 	559.42024698392
scalar RSUExampleScenario.node[78].veinsmobility 	totalCO2Emission 	264.84038752671
scalar RSUExampleScenario.node[79].veinsmobility 	startTime 	190.4
scalar RSUExampleScenario.node[79].veinsmobility 	totalTime 	159.6
scalar RSUExampleScenario.node[79].veinsmobility 	stopTime 	350
scalar RSUExampleScenario.node[79].veinsmobility 	minSpeed 	0
scalar RSUExampleScenario.node[79].veinsmobility 	maxSpeed 	13.997952048823
scalar RSUExampleScenario.node[79].veinsmobility 	totalDistance 	525.59384031805
scalar RSUExampleScenario.node[79].veinsmobility 	totalCO2Emission 	258.47892544181
scalar RSUExampleScenario.node[8].veinsmobility 	startTime 	19.3
scalar RSUExampleScenario.node[8].veinsmobility 	totalTime 	330.7
scalar RSUExampleScenario.node[8].veinsmobility 	stopTime 	350
scalar RSUExampleScenario.node[8].veinsmobility 	minSpeed 	0
scalar RSUExampleScenario.node[8].veinsmobility 	maxSpeed 	13.999949670064
scalar RSUExampleScenario.node[8].veinsmobility 	totalDistance 	2864.2595007197
scalar RSUExampleScenario.node[8].veinsmobility 	totalCO2Emission 	674.66910976958
scalar RSUExampleScenario.node[80].veinsmobility 	startTime 	192.9
scalar RSUExampleScenario.node[80].veinsmobility 	totalTime 	157.1
scalar RSUExampleScenario.node[80].veinsmobility 	stopTime 	350
scalar RSUExampleScenario.node[80].veinsmobility 	minSpeed 	0
scalar RSUExampleScenario.node[80].veinsmobility 	maxSpeed 	13.999400556386
scalar RSUExampleScenario.node[80].veinsmobility 	totalDistance 	492.53053220556
scalar RSUExampleScenario.node[80].veinsmobility 	totalCO2Emission 	254.96816632304
scalar RSUExampleScenario.node[81].veinsmobility 	startTime 	195.3
scalar RSUExampleScenario.node[81].veinsmobility 	totalTime 	154.7
scalar RSUExampleScenario.node[81].veinsmobility 	stopTime 	350
scalar RSUExampleScenario.node[81].veinsmobility 	minSpeed 	0
scalar RSUExampleScenario.node[81].veinsmobility 	maxSpeed 	13.996804322931
scalar RSUExampleScenario.node[81].veinsmobility 	totalDistance 	456.32069022504
scalar RSUExampleScenario.node[81].veinsmobility 	totalCO2Emission 	247.89687964265
scalar RSUExampleScenario.node[82].veinsmobility 	startTime 	197.7
scalar RSUExampleScenario.node[82].veinsmobility 	totalTime 	152.3
scalar RSUExampleScenario.node[82].veinsmobility 	stopTime 	350
scalar RSUExampleScenario.node[82].veinsmobility 	minSpeed 	0
scalar RSUExampleScenario.node[82].veinsmobility 	maxSpeed 	13.999087852882
scalar RSUExampleScenario.node[82].veinsmobility 	totalDistance 	424.65259538937
scalar RSUExampleScenario.node[82].veinsmobility 	totalCO2Emission 	243.19835394714
scalar RSUExampleScenario.node[83].veinsmobility 	startTime 	200.1
scalar RSUExampleScenario.node[83].veinsmobility 	totalTime 	149.9
scalar RSUExampleScenario.node[83].veinsmobility 	stopTime 	350
scalar RSUExampleScenario.node[83].veinsmobility 	minSpeed 	0
scalar RSUExampleScenario.node[83].veinsmobility 	maxSpeed 	13.998779197994
scalar RSUExampleScenario.node[83].veinsmobility 	totalDistance 	391.4274576995
scalar RSUExampleScenario.node[83].veinsmobility 	totalCO2Emission 	237.83771771822
scalar RSUExampleScenario.node[84].veinsmobility 	startTime 	202.5
scalar RSUExampleScenario.node[84].veinsmobility 	totalTime 	147.5
scalar RSUExampleScenario.node[84].veinsmobility 	stopTime 	350
scalar RSUExampleScenario.node[84].veinsmobility 	minSpeed 	0
scalar RSUExampleScenario.node[84].veinsmobility 	maxSpeed 	13.999659286656
scalar RSUExampleScenario.node[84].veinsmobility 	totalDistance 	357.53814874352
scalar RSUExampleScenario.node[84].veinsmobility 	totalCO2Emission 	231.12327372484
scalar RSUExampleScenario.node[85].veinsmobility 	startTime 	204.9
scalar RSUExampleScenario.node[85].veinsmobility 	totalTime 	145.1
scalar RSUExampleScenario.node[85].veinsmobility 	stopTime 	350
scalar RSUExampleScenario.node[85].veinsmobility 	minSpeed 	0
scalar RSUExampleScenario.node[85].veinsmobility 	maxSpeed 	13.995012326874
scalar RSUExampleScenario.node[85].veinsmobility 	totalDistance 	322.11408205798
scalar RSUExampleScenario.node[85].veinsmobility 	totalCO2Emission 	224.76663613779
scalar RSUExampleScenario.node[86].veinsmobility 	startTime 	207.3
scalar RSUExampleScenario.node[86].veinsmobility 	totalTime 	142.7
scalar RSUExampleScenario.node[86].veinsmobility 	stopTime 	350
scalar RSUExampleScenario.node[86].veinsmobility 	minSpeed 	0
scalar RSUExampleScenario.node[86].veinsmobility 	maxSpeed 	13.949765035741
scalar RSUExampleScenario.node[86].veinsmobility 	totalDistance 	290.7506508036
scalar RSUExampleScenario.node[86].veinsmobility 	totalCO2Emission 	219.93330352395
scalar RSUExampleScenario.node[87].veinsmobility 	startTime 	209.7
scalar RSUExampleScenario.node[87].veinsmobility 	totalTime 	140.3
scalar RSUExampleScenario.node[87].veinsmobility 	stopTime 	350
scalar RSUExampleScenario.node[87].veinsmobility 	minSpeed 	0
scalar RSUExampleScenario.node[87].veinsmobility 	maxSpeed 	13.775575031309
scalar RSUExampleScenario.node[87].veinsmobility 	totalDistance 	250.42267474259
scalar RSUExampleScenario.node[87].veinsmobility 	totalCO2Emission 	201.14002041555
scalar RSUExampleScenario.node[88].veinsmobility 	startTime 	212.1
scalar RSUExampleScenario.node[88].veinsmobility 	totalTime 	137.9
scalar RSUExampleScenario.node[88].veinsmobility 	stopTime 	350
scalar RSUExampleScenario.node[88].veinsmobility 	minSpeed 	0
scalar RSUExampleScenario.node[88].veinsmobility 	maxSpeed 	13.8724244346
scalar RSUExampleScenario.node[88].veinsmobility 	totalDistance 	226.660008507
scalar RSUExampleScenario.node[88].veinsmobility 	totalCO2Emission 	190.5453934605
scalar RSUExampleScenario.node[89].veinsmobility 	startTime 	214.5
scalar RSUExampleScenario.node[89].veinsmobility 	totalTime 	135.5
scalar RSUExampleScenario.node[89].veinsmobility 	stopTime 	350
scalar RSUExampleScenario.node[89].veinsmobility 	minSpeed 	0
scalar RSUExampleScenario.node[89].veinsmobility 	maxSpeed 	13.887869946402
scalar RSUExampleScenario.node[89].veinsmobility 	totalDistance 	215.75816288956
scalar RSUExampleScenario.node[89].veinsmobility 	totalCO2Emission 	185.35635519794
scalar RSUExampleScenario.node[9].veinsmobility 	startTime 	21.7
scalar RSUExampleScenario.node[9].veinsmobility 	totalTime 	328.3
scalar RSUExampleScenario.node[9].veinsmobility 	stopTime 	350
scalar RSUExampleScenario.node[9].veinsmobility 	minSpeed 	0
scalar RSUExampleScenario.node[9].veinsmobility 	maxSpeed 	13.99998946538
scalar RSUExampleScenario.node[9].veinsmobility 	totalDistance 	2824.8781323943
scalar RSUExampleScenario.node[9].veinsmobility 	totalCO2Emission 	664.40151027813
scalar RSUExampleScenario.node[90].veinsmobility 	startTime 	217
scalar RSUExampleScenario.node[90].veinsmobility 	totalTime 	133
scalar RSUExampleScenario.node[90].veinsmobility 	stopTime 	350
scalar RSUExampleScenario.node[90].veinsmobility 	minSpeed 	0
scalar RSUExampleScenario.node[90].veinsmobility 	maxSpeed 	13.767454601119
scalar RSUExampleScenario.node[90].veinsmobility 	totalDistance 	202.4238132775
scalar RSUExampleScenario.node[90].veinsmobility 	totalCO2Emission 	182.80315204583
scalar RSUExampleScenario.node[91].veinsmobility 	startTime 	219.4
scalar RSUExampleScenario.node[91].veinsmobility 	totalTime 	130.6
scalar RSUExampleScenario.node[91].veinsmobility 	stopTime 	350
scalar RSUExampleScenario.node[91].veinsmobility 	minSpeed 	0
scalar RSUExampleScenario.node[91].veinsmobility 	maxSpeed 	13.804634610119
scalar RSUExampleScenario.node[91].veinsmobility 	totalDistance 	185.52534565837
scalar RSUExampleScenario.node[91].veinsmobility 	totalCO2Emission 	180.85600183849
scalar RSUExampleScenario.node[92].veinsmobility 	startTime 	221.8
scalar RSUExampleScenario.node[92].veinsmobility 	totalTime 	128.2
scalar RSUExampleScenario.node[92].veinsmobility 	stopTime 	350
scalar RSUExampleScenario.node[92].veinsmobility 	minSpeed 	0
scalar RSUExampleScenario.node[92].veinsmobility 	maxSpeed 	13.816335989411
scalar RSUExampleScenario.node[92].veinsmobility 	totalDistance 	149.40999411269
scalar RSUExampleScenario.node[92].veinsmobility 	totalCO2Emission 	165.59984776571
scalar RSUExampleScenario.node[93].veinsmobility 	startTime 	224.2
scalar RSUExampleScenario.node[93].veinsmobility 	totalTime 	125.8
scalar RSUExampleScenario.node[93].veinsmobility 	stopTime 	350
scalar RSUExampleScenario.node[93].veinsmobility 	minSpeed 	0
scalar RSUExampleScenario.node[93].veinsmobility 	maxSpeed 	13.874592189696
scalar RSUExampleScenario.node[93].veinsmobility 	totalDistance 	123.66069764965
scalar RSUExampleScenario.node[93].veinsmobility 	totalCO2Emission 	154.24150083465
scalar RSUExampleScenario.node[94].veinsmobility 	startTime 	226.6
scalar RSUExampleScenario.node[94].veinsmobility 	totalTime 	123.4
scalar RSUExampleScenario.node[94].veinsmobility 	stopTime 	350
scalar RSUExampleScenario.node[94].veinsmobility 	minSpeed 	0
scalar RSUExampleScenario.node[94].veinsmobility 	maxSpeed 	13.867629818665
scalar RSUExampleScenario.node[94].veinsmobility 	totalDistance 	112.22734785968
scalar RSUExampleScenario.node[94].veinsmobility 	totalCO2Emission 	148.63002273379
scalar RSUExampleScenario.node[95].veinsmobility 	startTime 	229
scalar RSUExampleScenario.node[95].veinsmobility 	totalTime 	121
scalar RSUExampleScenario.node[95].veinsmobility 	stopTime 	350
scalar RSUExampleScenario.node[95].veinsmobility 	minSpeed 	0
scalar RSUExampleScenario.node[95].veinsmobility 	maxSpeed 	13.803366036518
scalar RSUExampleScenario.node[95].veinsmobility 	totalDistance 	99.330657304737
scalar RSUExampleScenario.node[95].veinsmobility 	totalCO2Emission 	144.734240441
scalar RSUExampleScenario.node[96].veinsmobility 	startTime 	231.4
scalar RSUExampleScenario.node[96].veinsmobility 	totalTime 	118.6
scalar RSUExampleScenario.node[96].veinsmobility 	stopTime 	350
scalar RSUExampleScenario.node[96].veinsmobility 	minSpeed 	0
scalar RSUExampleScenario.node[96].veinsmobility 	maxSpeed 	13.81977015991
scalar RSUExampleScenario.node[96].veinsmobility 	totalDistance 	82.963786560867
scalar RSUExampleScenario.node[96].veinsmobility 	totalCO2Emission 	142.6199972284
scalar RSUExampleScenario.node[97].veinsmobility 	startTime 	233.8
scalar RSUExampleScenario.node[97].veinsmobility 	totalTime 	116.2
scalar RSUExampleScenario.node[97].veinsmobility 	stopTime 	350
scalar RSUExampleScenario.node[97].veinsmobility 	minSpeed 	0
scalar RSUExampleScenario.node[97].veinsmobility 	maxSpeed 	12.171679845486
scalar RSUExampleScenario.node[97].veinsmobility 	totalDistance 	55.213119107551
scalar RSUExampleScenario.node[97].veinsmobility 	totalCO2Emission 	134.10822665112
scalar RSUExampleScenario.node[98].veinsmobility 	startTime 	236.2
scalar RSUExampleScenario.node[98].veinsmobility 	totalTime 	113.8
scalar RSUExampleScenario.node[98].veinsmobility 	stopTime 	350
scalar RSUExampleScenario.node[98].veinsmobility 	minSpeed 	0
scalar RSUExampleScenario.node[98].veinsmobility 	maxSpeed 	7.706963117559
scalar RSUExampleScenario.node[98].veinsmobility 	totalDistance 	21.584303532469
scalar RSUExampleScenario.node[98].veinsmobility 	totalCO2Emission 	119.25675245081
scalar RSUExampleScenario.node[99].veinsmobility 	startTime 	238.6
scalar RSUExampleScenario.node[99].veinsmobility 	totalTime 	111.4
scalar RSUExampleScenario.node[99].veinsmobility 	stopTime 	350
scalar RSUExampleScenario.node[99].veinsmobility 	minSpeed 	0
scalar RSUExampleScenario.node[99].veinsmobility 	maxSpeed 	3.0515691099801
scalar RSUExampleScenario.node[99].veinsmobility 	totalDistance 	3.2970587038063
scalar RSUExampleScenario.node[99].veinsmobility 	totalCO2Emission 	109.77764406498
