version 2
run statisticRVV-73-20150327-02:28:43-12956
attr c 8
attr configname statisticRVV
attr datetime 20150327-02:28:43
attr experiment statisticRVV
attr inifile omnetpp.ini
attr iterationvars "$sc=\"erlangen-low.launchd.xml\", $p=1/8, $c=8"
attr iterationvars2 "$sc=\"erlangen-low.launchd.xml\", $p=1/8, $c=8, $repetition=3"
attr measurement "$sc=\"erlangen-low.launchd.xml\", $p=1/8, $c=8"
attr network RSUExampleScenario
attr p 1/8
attr processid 12956
attr repetition 3
attr replication #3
attr resultdir results
attr runnumber 73
attr sc "\"erlangen-low.launchd.xml\""
attr seedset 73

scalar . 	c 	8
scalar RSUExampleScenario.node[0].veinsmobility 	startTime 	0.1
scalar RSUExampleScenario.node[0].veinsmobility 	totalTime 	227.2
scalar RSUExampleScenario.node[0].veinsmobility 	stopTime 	227.4
scalar RSUExampleScenario.node[0].veinsmobility 	minSpeed 	0.25164503105776
scalar RSUExampleScenario.node[0].veinsmobility 	maxSpeed 	18.999542927023
scalar RSUExampleScenario.node[0].veinsmobility 	totalDistance 	3409.2364636055
scalar RSUExampleScenario.node[0].veinsmobility 	totalCO2Emission 	711.25651397515
scalar RSUExampleScenario.node[1].veinsmobility 	startTime 	6.1
scalar RSUExampleScenario.node[1].veinsmobility 	totalTime 	226.8
scalar RSUExampleScenario.node[1].veinsmobility 	stopTime 	233
scalar RSUExampleScenario.node[1].veinsmobility 	minSpeed 	0.25524258739664
scalar RSUExampleScenario.node[1].veinsmobility 	maxSpeed 	18.999878049083
scalar RSUExampleScenario.node[1].veinsmobility 	totalDistance 	3409.5089650498
scalar RSUExampleScenario.node[1].veinsmobility 	totalCO2Emission 	707.47165289933
scalar RSUExampleScenario.node[2].veinsmobility 	startTime 	12.1
scalar RSUExampleScenario.node[2].veinsmobility 	totalTime 	226.7
scalar RSUExampleScenario.node[2].veinsmobility 	stopTime 	238.9
scalar RSUExampleScenario.node[2].veinsmobility 	minSpeed 	0.25038826089562
scalar RSUExampleScenario.node[2].veinsmobility 	maxSpeed 	18.999758783148
scalar RSUExampleScenario.node[2].veinsmobility 	totalDistance 	3409.5417786165
scalar RSUExampleScenario.node[2].veinsmobility 	totalCO2Emission 	710.62988632578
scalar RSUExampleScenario.node[3].veinsmobility 	startTime 	18.1
scalar RSUExampleScenario.node[3].veinsmobility 	totalTime 	227
scalar RSUExampleScenario.node[3].veinsmobility 	stopTime 	245.2
scalar RSUExampleScenario.node[3].veinsmobility 	minSpeed 	0.24845249760337
scalar RSUExampleScenario.node[3].veinsmobility 	maxSpeed 	18.999742209944
scalar RSUExampleScenario.node[3].veinsmobility 	totalDistance 	3409.3674462601
scalar RSUExampleScenario.node[3].veinsmobility 	totalCO2Emission 	708.97652475997
scalar RSUExampleScenario.node[4].veinsmobility 	startTime 	24.1
scalar RSUExampleScenario.node[4].veinsmobility 	totalTime 	226.9
scalar RSUExampleScenario.node[4].veinsmobility 	stopTime 	251.1
scalar RSUExampleScenario.node[4].veinsmobility 	minSpeed 	0.25028495229315
scalar RSUExampleScenario.node[4].veinsmobility 	maxSpeed 	18.999982092855
scalar RSUExampleScenario.node[4].veinsmobility 	totalDistance 	3409.5071179594
scalar RSUExampleScenario.node[4].veinsmobility 	totalCO2Emission 	712.28251954966
scalar RSUExampleScenario.node[5].veinsmobility 	startTime 	30.1
scalar RSUExampleScenario.node[5].veinsmobility 	totalTime 	227.1
scalar RSUExampleScenario.node[5].veinsmobility 	stopTime 	257.3
scalar RSUExampleScenario.node[5].veinsmobility 	minSpeed 	0.25304331823927
scalar RSUExampleScenario.node[5].veinsmobility 	maxSpeed 	18.999638225164
scalar RSUExampleScenario.node[5].veinsmobility 	totalDistance 	3409.4061172797
scalar RSUExampleScenario.node[5].veinsmobility 	totalCO2Emission 	705.44112689746
scalar RSUExampleScenario.node[6].veinsmobility 	startTime 	36.1
scalar RSUExampleScenario.node[6].veinsmobility 	totalTime 	226.9
scalar RSUExampleScenario.node[6].veinsmobility 	stopTime 	263.1
scalar RSUExampleScenario.node[6].veinsmobility 	minSpeed 	0.24754825717001
scalar RSUExampleScenario.node[6].veinsmobility 	maxSpeed 	18.999892164527
scalar RSUExampleScenario.node[6].veinsmobility 	totalDistance 	3409.5039917824
scalar RSUExampleScenario.node[6].veinsmobility 	totalCO2Emission 	705.81657153755
scalar RSUExampleScenario.node[7].veinsmobility 	startTime 	42.1
scalar RSUExampleScenario.node[7].veinsmobility 	totalTime 	226.9
scalar RSUExampleScenario.node[7].veinsmobility 	stopTime 	269.1
scalar RSUExampleScenario.node[7].veinsmobility 	minSpeed 	0.24845449096803
scalar RSUExampleScenario.node[7].veinsmobility 	maxSpeed 	18.999869192974
scalar RSUExampleScenario.node[7].veinsmobility 	totalDistance 	3409.0901322824
scalar RSUExampleScenario.node[7].veinsmobility 	totalCO2Emission 	713.468073416
scalar RSUExampleScenario.node[8].veinsmobility 	startTime 	48.1
scalar RSUExampleScenario.node[8].veinsmobility 	totalTime 	227
scalar RSUExampleScenario.node[8].veinsmobility 	stopTime 	275.2
scalar RSUExampleScenario.node[8].veinsmobility 	minSpeed 	0.25810782886064
scalar RSUExampleScenario.node[8].veinsmobility 	maxSpeed 	18.999900560624
scalar RSUExampleScenario.node[8].veinsmobility 	totalDistance 	3410.0380935048
scalar RSUExampleScenario.node[8].veinsmobility 	totalCO2Emission 	706.94752888356
scalar RSUExampleScenario.node[9].veinsmobility 	startTime 	54.1
scalar RSUExampleScenario.node[9].veinsmobility 	totalTime 	226.8
scalar RSUExampleScenario.node[9].veinsmobility 	stopTime 	281
scalar RSUExampleScenario.node[9].veinsmobility 	minSpeed 	0.24830231272639
scalar RSUExampleScenario.node[9].veinsmobility 	maxSpeed 	18.999603312861
scalar RSUExampleScenario.node[9].veinsmobility 	totalDistance 	3409.6485086163
scalar RSUExampleScenario.node[9].veinsmobility 	totalCO2Emission 	713.67605309281
scalar RSUExampleScenario.node[10].veinsmobility 	startTime 	60.1
scalar RSUExampleScenario.node[10].veinsmobility 	totalTime 	227
scalar RSUExampleScenario.node[10].veinsmobility 	stopTime 	287.2
scalar RSUExampleScenario.node[10].veinsmobility 	minSpeed 	0.2509964435671
scalar RSUExampleScenario.node[10].veinsmobility 	maxSpeed 	18.999717423916
scalar RSUExampleScenario.node[10].veinsmobility 	totalDistance 	3409.2917015754
scalar RSUExampleScenario.node[10].veinsmobility 	totalCO2Emission 	703.93480160772
scalar RSUExampleScenario.node[11].veinsmobility 	startTime 	66.1
scalar RSUExampleScenario.node[11].veinsmobility 	totalTime 	226.7
scalar RSUExampleScenario.node[11].veinsmobility 	stopTime 	292.9
scalar RSUExampleScenario.node[11].veinsmobility 	minSpeed 	0.25199615877355
scalar RSUExampleScenario.node[11].veinsmobility 	maxSpeed 	18.99994014485
scalar RSUExampleScenario.node[11].veinsmobility 	totalDistance 	3409.1911636924
scalar RSUExampleScenario.node[11].veinsmobility 	totalCO2Emission 	705.86028074304
scalar RSUExampleScenario.node[12].veinsmobility 	startTime 	72.1
scalar RSUExampleScenario.node[12].veinsmobility 	totalTime 	226.8
scalar RSUExampleScenario.node[12].veinsmobility 	stopTime 	299
scalar RSUExampleScenario.node[12].veinsmobility 	minSpeed 	0.25719414336653
scalar RSUExampleScenario.node[12].veinsmobility 	maxSpeed 	18.999992846011
scalar RSUExampleScenario.node[12].veinsmobility 	totalDistance 	3409.5493295353
scalar RSUExampleScenario.node[12].veinsmobility 	totalCO2Emission 	708.35115649571
scalar RSUExampleScenario.node[13].veinsmobility 	startTime 	78.1
scalar RSUExampleScenario.node[13].veinsmobility 	totalTime 	226.9
scalar RSUExampleScenario.node[13].veinsmobility 	stopTime 	305.1
scalar RSUExampleScenario.node[13].veinsmobility 	minSpeed 	0.25514667913155
scalar RSUExampleScenario.node[13].veinsmobility 	maxSpeed 	18.999841169543
scalar RSUExampleScenario.node[13].veinsmobility 	totalDistance 	3409.5757911285
scalar RSUExampleScenario.node[13].veinsmobility 	totalCO2Emission 	709.77701953172
scalar RSUExampleScenario.node[14].veinsmobility 	startTime 	84.1
scalar RSUExampleScenario.node[14].veinsmobility 	totalTime 	226.8
scalar RSUExampleScenario.node[14].veinsmobility 	stopTime 	311
scalar RSUExampleScenario.node[14].veinsmobility 	minSpeed 	0.25896919385367
scalar RSUExampleScenario.node[14].veinsmobility 	maxSpeed 	18.999510607868
scalar RSUExampleScenario.node[14].veinsmobility 	totalDistance 	3409.6426295477
scalar RSUExampleScenario.node[14].veinsmobility 	totalCO2Emission 	707.89004252403
scalar RSUExampleScenario.node[15].veinsmobility 	startTime 	90.1
scalar RSUExampleScenario.node[15].veinsmobility 	totalTime 	227
scalar RSUExampleScenario.node[15].veinsmobility 	stopTime 	317.2
scalar RSUExampleScenario.node[15].veinsmobility 	minSpeed 	0.2578868828679
scalar RSUExampleScenario.node[15].veinsmobility 	maxSpeed 	18.999462422177
scalar RSUExampleScenario.node[15].veinsmobility 	totalDistance 	3409.3410264814
scalar RSUExampleScenario.node[15].veinsmobility 	totalCO2Emission 	706.03221822541
scalar RSUExampleScenario.node[16].veinsmobility 	startTime 	96.1
scalar RSUExampleScenario.node[16].veinsmobility 	totalTime 	226.6
scalar RSUExampleScenario.node[16].veinsmobility 	stopTime 	322.8
scalar RSUExampleScenario.node[16].veinsmobility 	minSpeed 	0.2571966056549
scalar RSUExampleScenario.node[16].veinsmobility 	maxSpeed 	18.999878400373
scalar RSUExampleScenario.node[16].veinsmobility 	totalDistance 	3409.5511124478
scalar RSUExampleScenario.node[16].veinsmobility 	totalCO2Emission 	705.7561195372
scalar RSUExampleScenario.node[17].veinsmobility 	startTime 	102.1
scalar RSUExampleScenario.node[17].veinsmobility 	totalTime 	227.1
scalar RSUExampleScenario.node[17].veinsmobility 	stopTime 	329.3
scalar RSUExampleScenario.node[17].veinsmobility 	minSpeed 	0.25309591242345
scalar RSUExampleScenario.node[17].veinsmobility 	maxSpeed 	18.999457043707
scalar RSUExampleScenario.node[17].veinsmobility 	totalDistance 	3410.0028745035
scalar RSUExampleScenario.node[17].veinsmobility 	totalCO2Emission 	706.38755810982
scalar RSUExampleScenario.node[18].veinsmobility 	startTime 	108.1
scalar RSUExampleScenario.node[18].veinsmobility 	totalTime 	226.9
scalar RSUExampleScenario.node[18].veinsmobility 	stopTime 	335.1
scalar RSUExampleScenario.node[18].veinsmobility 	minSpeed 	0.24754460719018
scalar RSUExampleScenario.node[18].veinsmobility 	maxSpeed 	18.999384403089
scalar RSUExampleScenario.node[18].veinsmobility 	totalDistance 	3409.5482161445
scalar RSUExampleScenario.node[18].veinsmobility 	totalCO2Emission 	709.54169845921
scalar RSUExampleScenario.node[19].veinsmobility 	startTime 	114.1
scalar RSUExampleScenario.node[19].veinsmobility 	totalTime 	226.7
scalar RSUExampleScenario.node[19].veinsmobility 	stopTime 	340.9
scalar RSUExampleScenario.node[19].veinsmobility 	minSpeed 	0.25865761754219
scalar RSUExampleScenario.node[19].veinsmobility 	maxSpeed 	18.999793684131
scalar RSUExampleScenario.node[19].veinsmobility 	totalDistance 	3409.2536174381
scalar RSUExampleScenario.node[19].veinsmobility 	totalCO2Emission 	708.467479995
scalar RSUExampleScenario.node[20].veinsmobility 	startTime 	120.1
scalar RSUExampleScenario.node[20].veinsmobility 	totalTime 	226.9
scalar RSUExampleScenario.node[20].veinsmobility 	stopTime 	347.1
scalar RSUExampleScenario.node[20].veinsmobility 	minSpeed 	0.25534883186943
scalar RSUExampleScenario.node[20].veinsmobility 	maxSpeed 	18.999858694403
scalar RSUExampleScenario.node[20].veinsmobility 	totalDistance 	3409.3642250081
scalar RSUExampleScenario.node[20].veinsmobility 	totalCO2Emission 	712.38614617761
scalar RSUExampleScenario.node[21].veinsmobility 	startTime 	126.1
scalar RSUExampleScenario.node[21].veinsmobility 	totalTime 	226.9
scalar RSUExampleScenario.node[21].veinsmobility 	stopTime 	353.1
scalar RSUExampleScenario.node[21].veinsmobility 	minSpeed 	0.25043657633709
scalar RSUExampleScenario.node[21].veinsmobility 	maxSpeed 	18.999829780881
scalar RSUExampleScenario.node[21].veinsmobility 	totalDistance 	3409.6413542509
scalar RSUExampleScenario.node[21].veinsmobility 	totalCO2Emission 	707.41726045251
scalar RSUExampleScenario.node[22].veinsmobility 	startTime 	132.1
scalar RSUExampleScenario.node[22].veinsmobility 	totalTime 	227.1
scalar RSUExampleScenario.node[22].veinsmobility 	stopTime 	359.3
scalar RSUExampleScenario.node[22].veinsmobility 	minSpeed 	0.24734462134936
scalar RSUExampleScenario.node[22].veinsmobility 	maxSpeed 	18.999627182707
scalar RSUExampleScenario.node[22].veinsmobility 	totalDistance 	3409.9747944836
scalar RSUExampleScenario.node[22].veinsmobility 	totalCO2Emission 	709.44345385401
scalar RSUExampleScenario.node[23].veinsmobility 	startTime 	138.1
scalar RSUExampleScenario.node[23].veinsmobility 	totalTime 	227.1
scalar RSUExampleScenario.node[23].veinsmobility 	stopTime 	365.3
scalar RSUExampleScenario.node[23].veinsmobility 	minSpeed 	0.24770163673582
scalar RSUExampleScenario.node[23].veinsmobility 	maxSpeed 	18.999886015283
scalar RSUExampleScenario.node[23].veinsmobility 	totalDistance 	3409.3727562748
scalar RSUExampleScenario.node[23].veinsmobility 	totalCO2Emission 	706.97603215234
scalar RSUExampleScenario.node[24].veinsmobility 	startTime 	144.1
scalar RSUExampleScenario.node[24].veinsmobility 	totalTime 	226.8
scalar RSUExampleScenario.node[24].veinsmobility 	stopTime 	371
scalar RSUExampleScenario.node[24].veinsmobility 	minSpeed 	0.25603130587819
scalar RSUExampleScenario.node[24].veinsmobility 	maxSpeed 	18.999927498978
scalar RSUExampleScenario.node[24].veinsmobility 	totalDistance 	3409.5443724143
scalar RSUExampleScenario.node[24].veinsmobility 	totalCO2Emission 	707.10127631495
scalar RSUExampleScenario.node[25].veinsmobility 	startTime 	150.1
scalar RSUExampleScenario.node[25].veinsmobility 	totalTime 	226.8
scalar RSUExampleScenario.node[25].veinsmobility 	stopTime 	377
scalar RSUExampleScenario.node[25].veinsmobility 	minSpeed 	0.2528423672705
scalar RSUExampleScenario.node[25].veinsmobility 	maxSpeed 	18.999693344494
scalar RSUExampleScenario.node[25].veinsmobility 	totalDistance 	3409.5139581653
scalar RSUExampleScenario.node[25].veinsmobility 	totalCO2Emission 	710.97299415515
scalar RSUExampleScenario.node[26].veinsmobility 	startTime 	156.1
scalar RSUExampleScenario.node[26].veinsmobility 	totalTime 	227.2
scalar RSUExampleScenario.node[26].veinsmobility 	stopTime 	383.4
scalar RSUExampleScenario.node[26].veinsmobility 	minSpeed 	0.25045180861815
scalar RSUExampleScenario.node[26].veinsmobility 	maxSpeed 	18.99999537145
scalar RSUExampleScenario.node[26].veinsmobility 	totalDistance 	3409.7402944376
scalar RSUExampleScenario.node[26].veinsmobility 	totalCO2Emission 	707.5160617516
scalar RSUExampleScenario.node[27].veinsmobility 	startTime 	162.1
scalar RSUExampleScenario.node[27].veinsmobility 	totalTime 	226.7
scalar RSUExampleScenario.node[27].veinsmobility 	stopTime 	388.9
scalar RSUExampleScenario.node[27].veinsmobility 	minSpeed 	0.25536041845661
scalar RSUExampleScenario.node[27].veinsmobility 	maxSpeed 	18.999731805869
scalar RSUExampleScenario.node[27].veinsmobility 	totalDistance 	3409.5433044466
scalar RSUExampleScenario.node[27].veinsmobility 	totalCO2Emission 	710.14328527476
scalar RSUExampleScenario.node[28].veinsmobility 	startTime 	168.1
scalar RSUExampleScenario.node[28].veinsmobility 	totalTime 	226.8
scalar RSUExampleScenario.node[28].veinsmobility 	stopTime 	395
scalar RSUExampleScenario.node[28].veinsmobility 	minSpeed 	0.25743381920876
scalar RSUExampleScenario.node[28].veinsmobility 	maxSpeed 	18.999617919917
scalar RSUExampleScenario.node[28].veinsmobility 	totalDistance 	3409.6144832785
scalar RSUExampleScenario.node[28].veinsmobility 	totalCO2Emission 	706.23678226809
scalar RSUExampleScenario.node[29].veinsmobility 	startTime 	174.1
scalar RSUExampleScenario.node[29].veinsmobility 	totalTime 	226.7
scalar RSUExampleScenario.node[29].veinsmobility 	stopTime 	400.9
scalar RSUExampleScenario.node[29].veinsmobility 	minSpeed 	0.24896203906508
scalar RSUExampleScenario.node[29].veinsmobility 	maxSpeed 	18.999914901413
scalar RSUExampleScenario.node[29].veinsmobility 	totalDistance 	3409.3146137142
scalar RSUExampleScenario.node[29].veinsmobility 	totalCO2Emission 	707.48695370689
scalar RSUExampleScenario.node[30].veinsmobility 	startTime 	180.1
scalar RSUExampleScenario.node[30].veinsmobility 	totalTime 	226.9
scalar RSUExampleScenario.node[30].veinsmobility 	stopTime 	407.1
scalar RSUExampleScenario.node[30].veinsmobility 	minSpeed 	0.25333270475292
scalar RSUExampleScenario.node[30].veinsmobility 	maxSpeed 	18.999756072408
scalar RSUExampleScenario.node[30].veinsmobility 	totalDistance 	3409.3408794962
scalar RSUExampleScenario.node[30].veinsmobility 	totalCO2Emission 	708.66938386515
scalar RSUExampleScenario.node[31].veinsmobility 	startTime 	186.1
scalar RSUExampleScenario.node[31].veinsmobility 	totalTime 	226.7
scalar RSUExampleScenario.node[31].veinsmobility 	stopTime 	412.9
scalar RSUExampleScenario.node[31].veinsmobility 	minSpeed 	0.24975883398601
scalar RSUExampleScenario.node[31].veinsmobility 	maxSpeed 	18.999777055839
scalar RSUExampleScenario.node[31].veinsmobility 	totalDistance 	3409.4173713257
scalar RSUExampleScenario.node[31].veinsmobility 	totalCO2Emission 	710.13715104975
scalar RSUExampleScenario.node[32].veinsmobility 	startTime 	192.1
scalar RSUExampleScenario.node[32].veinsmobility 	totalTime 	227.2
scalar RSUExampleScenario.node[32].veinsmobility 	stopTime 	419.4
scalar RSUExampleScenario.node[32].veinsmobility 	minSpeed 	0.25337238285295
scalar RSUExampleScenario.node[32].veinsmobility 	maxSpeed 	18.999799700589
scalar RSUExampleScenario.node[32].veinsmobility 	totalDistance 	3409.1563257247
scalar RSUExampleScenario.node[32].veinsmobility 	totalCO2Emission 	708.61784541094
scalar RSUExampleScenario.node[33].veinsmobility 	startTime 	198.1
scalar RSUExampleScenario.node[33].veinsmobility 	totalTime 	227.1
scalar RSUExampleScenario.node[33].veinsmobility 	stopTime 	425.3
scalar RSUExampleScenario.node[33].veinsmobility 	minSpeed 	0.25350819775346
scalar RSUExampleScenario.node[33].veinsmobility 	maxSpeed 	18.999895398873
scalar RSUExampleScenario.node[33].veinsmobility 	totalDistance 	3409.7415158894
scalar RSUExampleScenario.node[33].veinsmobility 	totalCO2Emission 	707.25819237356
scalar RSUExampleScenario.node[34].veinsmobility 	startTime 	204.1
scalar RSUExampleScenario.node[34].veinsmobility 	totalTime 	227.1
scalar RSUExampleScenario.node[34].veinsmobility 	stopTime 	431.3
scalar RSUExampleScenario.node[34].veinsmobility 	minSpeed 	0.24780471327971
scalar RSUExampleScenario.node[34].veinsmobility 	maxSpeed 	18.999723312431
scalar RSUExampleScenario.node[34].veinsmobility 	totalDistance 	3409.6000081075
scalar RSUExampleScenario.node[34].veinsmobility 	totalCO2Emission 	710.08569210833
scalar RSUExampleScenario.node[35].veinsmobility 	startTime 	210.1
scalar RSUExampleScenario.node[35].veinsmobility 	totalTime 	226.8
scalar RSUExampleScenario.node[35].veinsmobility 	stopTime 	437
scalar RSUExampleScenario.node[35].veinsmobility 	minSpeed 	0.25332247980428
scalar RSUExampleScenario.node[35].veinsmobility 	maxSpeed 	18.999961667354
scalar RSUExampleScenario.node[35].veinsmobility 	totalDistance 	3409.529698449
scalar RSUExampleScenario.node[35].veinsmobility 	totalCO2Emission 	708.00344646782
scalar RSUExampleScenario.node[36].veinsmobility 	startTime 	216.1
scalar RSUExampleScenario.node[36].veinsmobility 	totalTime 	226.7
scalar RSUExampleScenario.node[36].veinsmobility 	stopTime 	442.9
scalar RSUExampleScenario.node[36].veinsmobility 	minSpeed 	0.25506831262191
scalar RSUExampleScenario.node[36].veinsmobility 	maxSpeed 	18.999466160031
scalar RSUExampleScenario.node[36].veinsmobility 	totalDistance 	3409.2040695594
scalar RSUExampleScenario.node[36].veinsmobility 	totalCO2Emission 	706.53324478423
scalar RSUExampleScenario.node[37].veinsmobility 	startTime 	222.1
scalar RSUExampleScenario.node[37].veinsmobility 	totalTime 	226.9
scalar RSUExampleScenario.node[37].veinsmobility 	stopTime 	449.1
scalar RSUExampleScenario.node[37].veinsmobility 	minSpeed 	0.25895530605828
scalar RSUExampleScenario.node[37].veinsmobility 	maxSpeed 	18.999776249803
scalar RSUExampleScenario.node[37].veinsmobility 	totalDistance 	3409.4272195644
scalar RSUExampleScenario.node[37].veinsmobility 	totalCO2Emission 	705.52918611862
scalar RSUExampleScenario.node[38].veinsmobility 	startTime 	228.1
scalar RSUExampleScenario.node[38].veinsmobility 	totalTime 	227
scalar RSUExampleScenario.node[38].veinsmobility 	stopTime 	455.2
scalar RSUExampleScenario.node[38].veinsmobility 	minSpeed 	0.25435772008915
scalar RSUExampleScenario.node[38].veinsmobility 	maxSpeed 	18.999693052589
scalar RSUExampleScenario.node[38].veinsmobility 	totalDistance 	3409.3427540288
scalar RSUExampleScenario.node[38].veinsmobility 	totalCO2Emission 	710.957938033
scalar RSUExampleScenario.node[39].veinsmobility 	startTime 	234.1
scalar RSUExampleScenario.node[39].veinsmobility 	totalTime 	227
scalar RSUExampleScenario.node[39].veinsmobility 	stopTime 	461.2
scalar RSUExampleScenario.node[39].veinsmobility 	minSpeed 	0.24927259592665
scalar RSUExampleScenario.node[39].veinsmobility 	maxSpeed 	18.999938022005
scalar RSUExampleScenario.node[39].veinsmobility 	totalDistance 	3409.2052248811
scalar RSUExampleScenario.node[39].veinsmobility 	totalCO2Emission 	709.73440562804
scalar RSUExampleScenario.node[40].veinsmobility 	startTime 	240.1
scalar RSUExampleScenario.node[40].veinsmobility 	totalTime 	227
scalar RSUExampleScenario.node[40].veinsmobility 	stopTime 	467.2
scalar RSUExampleScenario.node[40].veinsmobility 	minSpeed 	0.25971069966839
scalar RSUExampleScenario.node[40].veinsmobility 	maxSpeed 	18.999691885305
scalar RSUExampleScenario.node[40].veinsmobility 	totalDistance 	3409.1436863604
scalar RSUExampleScenario.node[40].veinsmobility 	totalCO2Emission 	703.15640095748
scalar RSUExampleScenario.node[41].veinsmobility 	startTime 	246.1
scalar RSUExampleScenario.node[41].veinsmobility 	totalTime 	227
scalar RSUExampleScenario.node[41].veinsmobility 	stopTime 	473.2
scalar RSUExampleScenario.node[41].veinsmobility 	minSpeed 	0.25859284878499
scalar RSUExampleScenario.node[41].veinsmobility 	maxSpeed 	18.999509980716
scalar RSUExampleScenario.node[41].veinsmobility 	totalDistance 	3409.4452193309
scalar RSUExampleScenario.node[41].veinsmobility 	totalCO2Emission 	705.02274836387
scalar RSUExampleScenario.node[42].veinsmobility 	startTime 	252.1
scalar RSUExampleScenario.node[42].veinsmobility 	totalTime 	227.2
scalar RSUExampleScenario.node[42].veinsmobility 	stopTime 	479.4
scalar RSUExampleScenario.node[42].veinsmobility 	minSpeed 	0.25670898991195
scalar RSUExampleScenario.node[42].veinsmobility 	maxSpeed 	18.999938426204
scalar RSUExampleScenario.node[42].veinsmobility 	totalDistance 	3409.2572440472
scalar RSUExampleScenario.node[42].veinsmobility 	totalCO2Emission 	708.44882446247
scalar RSUExampleScenario.node[43].veinsmobility 	startTime 	258.1
scalar RSUExampleScenario.node[43].veinsmobility 	totalTime 	227
scalar RSUExampleScenario.node[43].veinsmobility 	stopTime 	485.2
scalar RSUExampleScenario.node[43].veinsmobility 	minSpeed 	0.25482995082485
scalar RSUExampleScenario.node[43].veinsmobility 	maxSpeed 	18.999898391378
scalar RSUExampleScenario.node[43].veinsmobility 	totalDistance 	3409.7864716372
scalar RSUExampleScenario.node[43].veinsmobility 	totalCO2Emission 	706.27961285394
scalar RSUExampleScenario.node[44].veinsmobility 	startTime 	264.1
scalar RSUExampleScenario.node[44].veinsmobility 	totalTime 	226.7
scalar RSUExampleScenario.node[44].veinsmobility 	stopTime 	490.9
scalar RSUExampleScenario.node[44].veinsmobility 	minSpeed 	0.24924149183836
scalar RSUExampleScenario.node[44].veinsmobility 	maxSpeed 	18.999702291316
scalar RSUExampleScenario.node[44].veinsmobility 	totalDistance 	3409.3783571573
scalar RSUExampleScenario.node[44].veinsmobility 	totalCO2Emission 	706.6901635921
scalar RSUExampleScenario.node[45].veinsmobility 	startTime 	270.1
scalar RSUExampleScenario.node[45].veinsmobility 	totalTime 	226.9
scalar RSUExampleScenario.node[45].veinsmobility 	stopTime 	497.1
scalar RSUExampleScenario.node[45].veinsmobility 	minSpeed 	0.24731035795552
scalar RSUExampleScenario.node[45].veinsmobility 	maxSpeed 	18.999820551598
scalar RSUExampleScenario.node[45].veinsmobility 	totalDistance 	3409.2518037414
scalar RSUExampleScenario.node[45].veinsmobility 	totalCO2Emission 	710.60093194548
scalar RSUExampleScenario.node[46].veinsmobility 	startTime 	276.1
scalar RSUExampleScenario.node[46].veinsmobility 	totalTime 	227
scalar RSUExampleScenario.node[46].veinsmobility 	stopTime 	503.2
scalar RSUExampleScenario.node[46].veinsmobility 	minSpeed 	0.24810486533726
scalar RSUExampleScenario.node[46].veinsmobility 	maxSpeed 	18.999950834473
scalar RSUExampleScenario.node[46].veinsmobility 	totalDistance 	3409.1460330896
scalar RSUExampleScenario.node[46].veinsmobility 	totalCO2Emission 	706.47063016259
scalar RSUExampleScenario.node[47].veinsmobility 	startTime 	282.1
scalar RSUExampleScenario.node[47].veinsmobility 	totalTime 	226.7
scalar RSUExampleScenario.node[47].veinsmobility 	stopTime 	508.9
scalar RSUExampleScenario.node[47].veinsmobility 	minSpeed 	0.253531982783
scalar RSUExampleScenario.node[47].veinsmobility 	maxSpeed 	18.999839560073
scalar RSUExampleScenario.node[47].veinsmobility 	totalDistance 	3409.5843731081
scalar RSUExampleScenario.node[47].veinsmobility 	totalCO2Emission 	710.34211460414
scalar RSUExampleScenario.node[48].veinsmobility 	startTime 	288.1
scalar RSUExampleScenario.node[48].veinsmobility 	totalTime 	227.2
scalar RSUExampleScenario.node[48].veinsmobility 	stopTime 	515.4
scalar RSUExampleScenario.node[48].veinsmobility 	minSpeed 	0.25127760800696
scalar RSUExampleScenario.node[48].veinsmobility 	maxSpeed 	18.999629096158
scalar RSUExampleScenario.node[48].veinsmobility 	totalDistance 	3410.0320465588
scalar RSUExampleScenario.node[48].veinsmobility 	totalCO2Emission 	707.25291014001
scalar RSUExampleScenario.node[49].veinsmobility 	startTime 	294.1
scalar RSUExampleScenario.node[49].veinsmobility 	totalTime 	227
scalar RSUExampleScenario.node[49].veinsmobility 	stopTime 	521.2
scalar RSUExampleScenario.node[49].veinsmobility 	minSpeed 	0.24733255311684
scalar RSUExampleScenario.node[49].veinsmobility 	maxSpeed 	18.99959477169
scalar RSUExampleScenario.node[49].veinsmobility 	totalDistance 	3409.2341798883
scalar RSUExampleScenario.node[49].veinsmobility 	totalCO2Emission 	706.43714413695
scalar RSUExampleScenario.node[50].veinsmobility 	startTime 	300.1
scalar RSUExampleScenario.node[50].veinsmobility 	totalTime 	227
scalar RSUExampleScenario.node[50].veinsmobility 	stopTime 	527.2
scalar RSUExampleScenario.node[50].veinsmobility 	minSpeed 	0.25127235981403
scalar RSUExampleScenario.node[50].veinsmobility 	maxSpeed 	18.999881413158
scalar RSUExampleScenario.node[50].veinsmobility 	totalDistance 	3409.4209948425
scalar RSUExampleScenario.node[50].veinsmobility 	totalCO2Emission 	705.26631427275
scalar RSUExampleScenario.node[51].veinsmobility 	startTime 	306.1
scalar RSUExampleScenario.node[51].veinsmobility 	totalTime 	226.7
scalar RSUExampleScenario.node[51].veinsmobility 	stopTime 	532.9
scalar RSUExampleScenario.node[51].veinsmobility 	minSpeed 	0.25550973895262
scalar RSUExampleScenario.node[51].veinsmobility 	maxSpeed 	18.999766405292
scalar RSUExampleScenario.node[51].veinsmobility 	totalDistance 	3409.6028555032
scalar RSUExampleScenario.node[51].veinsmobility 	totalCO2Emission 	708.39634704721
scalar RSUExampleScenario.node[52].veinsmobility 	startTime 	312.1
scalar RSUExampleScenario.node[52].veinsmobility 	totalTime 	227.1
scalar RSUExampleScenario.node[52].veinsmobility 	stopTime 	539.3
scalar RSUExampleScenario.node[52].veinsmobility 	minSpeed 	0.2584644985504
scalar RSUExampleScenario.node[52].veinsmobility 	maxSpeed 	18.999880100284
scalar RSUExampleScenario.node[52].veinsmobility 	totalDistance 	3409.2042366641
scalar RSUExampleScenario.node[52].veinsmobility 	totalCO2Emission 	706.24723215911
scalar RSUExampleScenario.node[53].veinsmobility 	startTime 	318.1
scalar RSUExampleScenario.node[53].veinsmobility 	totalTime 	226.6
scalar RSUExampleScenario.node[53].veinsmobility 	stopTime 	544.8
scalar RSUExampleScenario.node[53].veinsmobility 	minSpeed 	0.25160044093919
scalar RSUExampleScenario.node[53].veinsmobility 	maxSpeed 	18.999998558275
scalar RSUExampleScenario.node[53].veinsmobility 	totalDistance 	3409.3661432545
scalar RSUExampleScenario.node[53].veinsmobility 	totalCO2Emission 	708.55825506106
scalar RSUExampleScenario.node[54].veinsmobility 	startTime 	324.1
scalar RSUExampleScenario.node[54].veinsmobility 	totalTime 	226.8
scalar RSUExampleScenario.node[54].veinsmobility 	stopTime 	551
scalar RSUExampleScenario.node[54].veinsmobility 	minSpeed 	0.25456895782589
scalar RSUExampleScenario.node[54].veinsmobility 	maxSpeed 	18.999581762662
scalar RSUExampleScenario.node[54].veinsmobility 	totalDistance 	3409.2171590877
scalar RSUExampleScenario.node[54].veinsmobility 	totalCO2Emission 	709.06777255557
scalar RSUExampleScenario.node[55].veinsmobility 	startTime 	330.1
scalar RSUExampleScenario.node[55].veinsmobility 	totalTime 	227.2
scalar RSUExampleScenario.node[55].veinsmobility 	stopTime 	557.4
scalar RSUExampleScenario.node[55].veinsmobility 	minSpeed 	0.25386905410769
scalar RSUExampleScenario.node[55].veinsmobility 	maxSpeed 	18.999714936705
scalar RSUExampleScenario.node[55].veinsmobility 	totalDistance 	3409.2814203919
scalar RSUExampleScenario.node[55].veinsmobility 	totalCO2Emission 	705.63505171027
scalar RSUExampleScenario.node[56].veinsmobility 	startTime 	336.1
scalar RSUExampleScenario.node[56].veinsmobility 	totalTime 	226.9
scalar RSUExampleScenario.node[56].veinsmobility 	stopTime 	563.1
scalar RSUExampleScenario.node[56].veinsmobility 	minSpeed 	0.25886476894072
scalar RSUExampleScenario.node[56].veinsmobility 	maxSpeed 	18.999485702161
scalar RSUExampleScenario.node[56].veinsmobility 	totalDistance 	3409.3462102692
scalar RSUExampleScenario.node[56].veinsmobility 	totalCO2Emission 	706.12341134188
scalar RSUExampleScenario.node[57].veinsmobility 	startTime 	342.1
scalar RSUExampleScenario.node[57].veinsmobility 	totalTime 	226.9
scalar RSUExampleScenario.node[57].veinsmobility 	stopTime 	569.1
scalar RSUExampleScenario.node[57].veinsmobility 	minSpeed 	0.2589687435478
scalar RSUExampleScenario.node[57].veinsmobility 	maxSpeed 	18.999868764863
scalar RSUExampleScenario.node[57].veinsmobility 	totalDistance 	3409.7969978413
scalar RSUExampleScenario.node[57].veinsmobility 	totalCO2Emission 	706.8607589042
scalar RSUExampleScenario.node[58].veinsmobility 	startTime 	348.1
scalar RSUExampleScenario.node[58].veinsmobility 	totalTime 	226.7
scalar RSUExampleScenario.node[58].veinsmobility 	stopTime 	574.9
scalar RSUExampleScenario.node[58].veinsmobility 	minSpeed 	0.255401100585
scalar RSUExampleScenario.node[58].veinsmobility 	maxSpeed 	18.999972148067
scalar RSUExampleScenario.node[58].veinsmobility 	totalDistance 	3409.690342395
scalar RSUExampleScenario.node[58].veinsmobility 	totalCO2Emission 	708.90512526651
scalar RSUExampleScenario.node[59].veinsmobility 	startTime 	354.1
scalar RSUExampleScenario.node[59].veinsmobility 	totalTime 	226.8
scalar RSUExampleScenario.node[59].veinsmobility 	stopTime 	581
scalar RSUExampleScenario.node[59].veinsmobility 	minSpeed 	0.25219985722168
scalar RSUExampleScenario.node[59].veinsmobility 	maxSpeed 	18.999601699517
scalar RSUExampleScenario.node[59].veinsmobility 	totalDistance 	3409.3789595876
scalar RSUExampleScenario.node[59].veinsmobility 	totalCO2Emission 	705.02194601573
scalar RSUExampleScenario.node[60].veinsmobility 	startTime 	360.1
scalar RSUExampleScenario.node[60].veinsmobility 	totalTime 	226.7
scalar RSUExampleScenario.node[60].veinsmobility 	stopTime 	586.9
scalar RSUExampleScenario.node[60].veinsmobility 	minSpeed 	0.25238593841088
scalar RSUExampleScenario.node[60].veinsmobility 	maxSpeed 	18.999557674523
scalar RSUExampleScenario.node[60].veinsmobility 	totalDistance 	3409.3459364181
scalar RSUExampleScenario.node[60].veinsmobility 	totalCO2Emission 	704.74699685499
scalar RSUExampleScenario.node[61].veinsmobility 	startTime 	366.1
scalar RSUExampleScenario.node[61].veinsmobility 	totalTime 	226.8
scalar RSUExampleScenario.node[61].veinsmobility 	stopTime 	593
scalar RSUExampleScenario.node[61].veinsmobility 	minSpeed 	0.24924509272049
scalar RSUExampleScenario.node[61].veinsmobility 	maxSpeed 	18.999925681355
scalar RSUExampleScenario.node[61].veinsmobility 	totalDistance 	3409.3112371812
scalar RSUExampleScenario.node[61].veinsmobility 	totalCO2Emission 	702.79381240507
scalar RSUExampleScenario.node[62].veinsmobility 	startTime 	372.1
scalar RSUExampleScenario.node[62].veinsmobility 	totalTime 	227
scalar RSUExampleScenario.node[62].veinsmobility 	stopTime 	599.2
scalar RSUExampleScenario.node[62].veinsmobility 	minSpeed 	0.25764411509666
scalar RSUExampleScenario.node[62].veinsmobility 	maxSpeed 	18.999889549313
scalar RSUExampleScenario.node[62].veinsmobility 	totalDistance 	3409.4765617149
scalar RSUExampleScenario.node[62].veinsmobility 	totalCO2Emission 	705.70878601745
scalar RSUExampleScenario.node[63].veinsmobility 	startTime 	378.1
scalar RSUExampleScenario.node[63].veinsmobility 	totalTime 	226.5
scalar RSUExampleScenario.node[63].veinsmobility 	stopTime 	604.7
scalar RSUExampleScenario.node[63].veinsmobility 	minSpeed 	0.24715493188961
scalar RSUExampleScenario.node[63].veinsmobility 	maxSpeed 	18.999902229146
scalar RSUExampleScenario.node[63].veinsmobility 	totalDistance 	3409.2949211315
scalar RSUExampleScenario.node[63].veinsmobility 	totalCO2Emission 	703.41489936436
scalar RSUExampleScenario.node[64].veinsmobility 	startTime 	384.1
scalar RSUExampleScenario.node[64].veinsmobility 	totalTime 	226.7
scalar RSUExampleScenario.node[64].veinsmobility 	stopTime 	610.9
scalar RSUExampleScenario.node[64].veinsmobility 	minSpeed 	0.25289488647482
scalar RSUExampleScenario.node[64].veinsmobility 	maxSpeed 	18.999894548373
scalar RSUExampleScenario.node[64].veinsmobility 	totalDistance 	3409.2424563316
scalar RSUExampleScenario.node[64].veinsmobility 	totalCO2Emission 	704.6009960292
scalar RSUExampleScenario.node[65].veinsmobility 	startTime 	390.1
scalar RSUExampleScenario.node[65].veinsmobility 	totalTime 	226.8
scalar RSUExampleScenario.node[65].veinsmobility 	stopTime 	617
scalar RSUExampleScenario.node[65].veinsmobility 	minSpeed 	0.24837962874025
scalar RSUExampleScenario.node[65].veinsmobility 	maxSpeed 	18.999639854035
scalar RSUExampleScenario.node[65].veinsmobility 	totalDistance 	3409.2663965488
scalar RSUExampleScenario.node[65].veinsmobility 	totalCO2Emission 	706.92499581613
scalar RSUExampleScenario.node[66].veinsmobility 	startTime 	396.1
scalar RSUExampleScenario.node[66].veinsmobility 	totalTime 	227.1
scalar RSUExampleScenario.node[66].veinsmobility 	stopTime 	623.3
scalar RSUExampleScenario.node[66].veinsmobility 	minSpeed 	0.25380325798853
scalar RSUExampleScenario.node[66].veinsmobility 	maxSpeed 	18.999819921721
scalar RSUExampleScenario.node[66].veinsmobility 	totalDistance 	3409.1748345424
scalar RSUExampleScenario.node[66].veinsmobility 	totalCO2Emission 	709.60829092159
scalar RSUExampleScenario.node[67].veinsmobility 	startTime 	402.1
scalar RSUExampleScenario.node[67].veinsmobility 	totalTime 	227
scalar RSUExampleScenario.node[67].veinsmobility 	stopTime 	629.2
scalar RSUExampleScenario.node[67].veinsmobility 	minSpeed 	0.25281325314171
scalar RSUExampleScenario.node[67].veinsmobility 	maxSpeed 	18.999465836163
scalar RSUExampleScenario.node[67].veinsmobility 	totalDistance 	3409.3646097166
scalar RSUExampleScenario.node[67].veinsmobility 	totalCO2Emission 	708.11430618956
scalar RSUExampleScenario.node[68].veinsmobility 	startTime 	408.1
scalar RSUExampleScenario.node[68].veinsmobility 	totalTime 	227
scalar RSUExampleScenario.node[68].veinsmobility 	stopTime 	635.2
scalar RSUExampleScenario.node[68].veinsmobility 	minSpeed 	0.25301233412721
scalar RSUExampleScenario.node[68].veinsmobility 	maxSpeed 	18.999931097992
scalar RSUExampleScenario.node[68].veinsmobility 	totalDistance 	3409.1747830637
scalar RSUExampleScenario.node[68].veinsmobility 	totalCO2Emission 	706.5761832481
scalar RSUExampleScenario.node[69].veinsmobility 	startTime 	414.1
scalar RSUExampleScenario.node[69].veinsmobility 	totalTime 	227
scalar RSUExampleScenario.node[69].veinsmobility 	stopTime 	641.2
scalar RSUExampleScenario.node[69].veinsmobility 	minSpeed 	0.25866086989455
scalar RSUExampleScenario.node[69].veinsmobility 	maxSpeed 	18.999974991896
scalar RSUExampleScenario.node[69].veinsmobility 	totalDistance 	3409.6083782129
scalar RSUExampleScenario.node[69].veinsmobility 	totalCO2Emission 	703.87879444406
scalar RSUExampleScenario.node[70].veinsmobility 	startTime 	420.1
scalar RSUExampleScenario.node[70].veinsmobility 	totalTime 	226.8
scalar RSUExampleScenario.node[70].veinsmobility 	stopTime 	647
scalar RSUExampleScenario.node[70].veinsmobility 	minSpeed 	0.2557328142859
scalar RSUExampleScenario.node[70].veinsmobility 	maxSpeed 	18.999944065644
scalar RSUExampleScenario.node[70].veinsmobility 	totalDistance 	3409.2122893203
scalar RSUExampleScenario.node[70].veinsmobility 	totalCO2Emission 	703.0152088988
scalar RSUExampleScenario.node[71].veinsmobility 	startTime 	426.1
scalar RSUExampleScenario.node[71].veinsmobility 	totalTime 	227
scalar RSUExampleScenario.node[71].veinsmobility 	stopTime 	653.2
scalar RSUExampleScenario.node[71].veinsmobility 	minSpeed 	0.25051654187404
scalar RSUExampleScenario.node[71].veinsmobility 	maxSpeed 	18.999874105921
scalar RSUExampleScenario.node[71].veinsmobility 	totalDistance 	3409.5150601634
scalar RSUExampleScenario.node[71].veinsmobility 	totalCO2Emission 	709.44056053023
scalar RSUExampleScenario.node[72].veinsmobility 	startTime 	432.1
scalar RSUExampleScenario.node[72].veinsmobility 	totalTime 	226.9
scalar RSUExampleScenario.node[72].veinsmobility 	stopTime 	659.1
scalar RSUExampleScenario.node[72].veinsmobility 	minSpeed 	0.25230199148692
scalar RSUExampleScenario.node[72].veinsmobility 	maxSpeed 	18.999263426438
scalar RSUExampleScenario.node[72].veinsmobility 	totalDistance 	3409.6018360416
scalar RSUExampleScenario.node[72].veinsmobility 	totalCO2Emission 	705.88761962431
scalar RSUExampleScenario.node[73].veinsmobility 	startTime 	438.1
scalar RSUExampleScenario.node[73].veinsmobility 	totalTime 	226.9
scalar RSUExampleScenario.node[73].veinsmobility 	stopTime 	665.1
scalar RSUExampleScenario.node[73].veinsmobility 	minSpeed 	0.24790554761374
scalar RSUExampleScenario.node[73].veinsmobility 	maxSpeed 	18.999944766923
scalar RSUExampleScenario.node[73].veinsmobility 	totalDistance 	3409.4282123842
scalar RSUExampleScenario.node[73].veinsmobility 	totalCO2Emission 	709.12006141158
scalar RSUExampleScenario.node[74].veinsmobility 	startTime 	444.1
scalar RSUExampleScenario.node[74].veinsmobility 	totalTime 	226.8
scalar RSUExampleScenario.node[74].veinsmobility 	stopTime 	671
scalar RSUExampleScenario.node[74].veinsmobility 	minSpeed 	0.25328334381897
scalar RSUExampleScenario.node[74].veinsmobility 	maxSpeed 	18.999752902987
scalar RSUExampleScenario.node[74].veinsmobility 	totalDistance 	3409.3448393105
scalar RSUExampleScenario.node[74].veinsmobility 	totalCO2Emission 	707.35197123486
scalar RSUExampleScenario.node[75].veinsmobility 	startTime 	450.1
scalar RSUExampleScenario.node[75].veinsmobility 	totalTime 	227.1
scalar RSUExampleScenario.node[75].veinsmobility 	stopTime 	677.3
scalar RSUExampleScenario.node[75].veinsmobility 	minSpeed 	0.25917719898792
scalar RSUExampleScenario.node[75].veinsmobility 	maxSpeed 	18.999948480472
scalar RSUExampleScenario.node[75].veinsmobility 	totalDistance 	3410.0447703956
scalar RSUExampleScenario.node[75].veinsmobility 	totalCO2Emission 	703.83315652113
scalar RSUExampleScenario.node[76].veinsmobility 	startTime 	456.1
scalar RSUExampleScenario.node[76].veinsmobility 	totalTime 	226.8
scalar RSUExampleScenario.node[76].veinsmobility 	stopTime 	683
scalar RSUExampleScenario.node[76].veinsmobility 	minSpeed 	0.25753825334436
scalar RSUExampleScenario.node[76].veinsmobility 	maxSpeed 	18.999827916797
scalar RSUExampleScenario.node[76].veinsmobility 	totalDistance 	3409.3373383802
scalar RSUExampleScenario.node[76].veinsmobility 	totalCO2Emission 	707.63679867732
scalar RSUExampleScenario.node[77].veinsmobility 	startTime 	462.1
scalar RSUExampleScenario.node[77].veinsmobility 	totalTime 	226.7
scalar RSUExampleScenario.node[77].veinsmobility 	stopTime 	688.9
scalar RSUExampleScenario.node[77].veinsmobility 	minSpeed 	0.24801817329787
scalar RSUExampleScenario.node[77].veinsmobility 	maxSpeed 	18.99975848522
scalar RSUExampleScenario.node[77].veinsmobility 	totalDistance 	3409.2402072083
scalar RSUExampleScenario.node[77].veinsmobility 	totalCO2Emission 	707.96721504493
scalar RSUExampleScenario.node[78].veinsmobility 	startTime 	468.1
scalar RSUExampleScenario.node[78].veinsmobility 	totalTime 	226.9
scalar RSUExampleScenario.node[78].veinsmobility 	stopTime 	695.1
scalar RSUExampleScenario.node[78].veinsmobility 	minSpeed 	0.25255830392963
scalar RSUExampleScenario.node[78].veinsmobility 	maxSpeed 	18.999776946632
scalar RSUExampleScenario.node[78].veinsmobility 	totalDistance 	3409.2834197471
scalar RSUExampleScenario.node[78].veinsmobility 	totalCO2Emission 	703.10504673188
scalar RSUExampleScenario.node[79].veinsmobility 	startTime 	474.1
scalar RSUExampleScenario.node[79].veinsmobility 	totalTime 	227.1
scalar RSUExampleScenario.node[79].veinsmobility 	stopTime 	701.3
scalar RSUExampleScenario.node[79].veinsmobility 	minSpeed 	0.25167036508466
scalar RSUExampleScenario.node[79].veinsmobility 	maxSpeed 	18.999849615037
scalar RSUExampleScenario.node[79].veinsmobility 	totalDistance 	3409.2853194208
scalar RSUExampleScenario.node[79].veinsmobility 	totalCO2Emission 	707.41164339264
scalar RSUExampleScenario.node[80].veinsmobility 	startTime 	480.1
scalar RSUExampleScenario.node[80].veinsmobility 	totalTime 	227.1
scalar RSUExampleScenario.node[80].veinsmobility 	stopTime 	707.3
scalar RSUExampleScenario.node[80].veinsmobility 	minSpeed 	0.24874815154797
scalar RSUExampleScenario.node[80].veinsmobility 	maxSpeed 	18.999953422749
scalar RSUExampleScenario.node[80].veinsmobility 	totalDistance 	3409.1052510553
scalar RSUExampleScenario.node[80].veinsmobility 	totalCO2Emission 	707.59836720471
scalar RSUExampleScenario.node[81].veinsmobility 	startTime 	486.1
scalar RSUExampleScenario.node[81].veinsmobility 	totalTime 	226.9
scalar RSUExampleScenario.node[81].veinsmobility 	stopTime 	713.1
scalar RSUExampleScenario.node[81].veinsmobility 	minSpeed 	0.25012935163546
scalar RSUExampleScenario.node[81].veinsmobility 	maxSpeed 	18.999973449106
scalar RSUExampleScenario.node[81].veinsmobility 	totalDistance 	3409.285778687
scalar RSUExampleScenario.node[81].veinsmobility 	totalCO2Emission 	704.55194546719
scalar RSUExampleScenario.node[82].veinsmobility 	startTime 	492.1
scalar RSUExampleScenario.node[82].veinsmobility 	totalTime 	226.9
scalar RSUExampleScenario.node[82].veinsmobility 	stopTime 	719.1
scalar RSUExampleScenario.node[82].veinsmobility 	minSpeed 	0.25376475687721
scalar RSUExampleScenario.node[82].veinsmobility 	maxSpeed 	18.999829952228
scalar RSUExampleScenario.node[82].veinsmobility 	totalDistance 	3409.4980265803
scalar RSUExampleScenario.node[82].veinsmobility 	totalCO2Emission 	707.68128598863
scalar RSUExampleScenario.node[83].veinsmobility 	startTime 	498.1
scalar RSUExampleScenario.node[83].veinsmobility 	totalTime 	226.8
scalar RSUExampleScenario.node[83].veinsmobility 	stopTime 	725
scalar RSUExampleScenario.node[83].veinsmobility 	minSpeed 	0.25934551018593
scalar RSUExampleScenario.node[83].veinsmobility 	maxSpeed 	18.999993427247
scalar RSUExampleScenario.node[83].veinsmobility 	totalDistance 	3409.1765124966
scalar RSUExampleScenario.node[83].veinsmobility 	totalCO2Emission 	710.8180815448
scalar RSUExampleScenario.node[84].veinsmobility 	startTime 	504.1
scalar RSUExampleScenario.node[84].veinsmobility 	totalTime 	226.8
scalar RSUExampleScenario.node[84].veinsmobility 	stopTime 	731
scalar RSUExampleScenario.node[84].veinsmobility 	minSpeed 	0.24966352063208
scalar RSUExampleScenario.node[84].veinsmobility 	maxSpeed 	18.999780746263
scalar RSUExampleScenario.node[84].veinsmobility 	totalDistance 	3409.6379329607
scalar RSUExampleScenario.node[84].veinsmobility 	totalCO2Emission 	703.79041026751
scalar RSUExampleScenario.node[85].veinsmobility 	startTime 	510.1
scalar RSUExampleScenario.node[85].veinsmobility 	totalTime 	227
scalar RSUExampleScenario.node[85].veinsmobility 	stopTime 	737.2
scalar RSUExampleScenario.node[85].veinsmobility 	minSpeed 	0.25430001358199
scalar RSUExampleScenario.node[85].veinsmobility 	maxSpeed 	18.999894232526
scalar RSUExampleScenario.node[85].veinsmobility 	totalDistance 	3409.5908275329
scalar RSUExampleScenario.node[85].veinsmobility 	totalCO2Emission 	704.833012681
scalar RSUExampleScenario.node[86].veinsmobility 	startTime 	516.1
scalar RSUExampleScenario.node[86].veinsmobility 	totalTime 	226.9
scalar RSUExampleScenario.node[86].veinsmobility 	stopTime 	743.1
scalar RSUExampleScenario.node[86].veinsmobility 	minSpeed 	0.25824564868817
scalar RSUExampleScenario.node[86].veinsmobility 	maxSpeed 	18.999899019953
scalar RSUExampleScenario.node[86].veinsmobility 	totalDistance 	3409.292281833
scalar RSUExampleScenario.node[86].veinsmobility 	totalCO2Emission 	705.92515149581
scalar RSUExampleScenario.node[87].veinsmobility 	startTime 	522.1
scalar RSUExampleScenario.node[87].veinsmobility 	totalTime 	226.7
scalar RSUExampleScenario.node[87].veinsmobility 	stopTime 	748.9
scalar RSUExampleScenario.node[87].veinsmobility 	minSpeed 	0.25737991447537
scalar RSUExampleScenario.node[87].veinsmobility 	maxSpeed 	18.999974508577
scalar RSUExampleScenario.node[87].veinsmobility 	totalDistance 	3409.4238965359
scalar RSUExampleScenario.node[87].veinsmobility 	totalCO2Emission 	707.67758354454
scalar RSUExampleScenario.node[88].veinsmobility 	startTime 	528.1
scalar RSUExampleScenario.node[88].veinsmobility 	totalTime 	226.5
scalar RSUExampleScenario.node[88].veinsmobility 	stopTime 	754.7
scalar RSUExampleScenario.node[88].veinsmobility 	minSpeed 	0.25839502086374
scalar RSUExampleScenario.node[88].veinsmobility 	maxSpeed 	18.999654100509
scalar RSUExampleScenario.node[88].veinsmobility 	totalDistance 	3409.9615024841
scalar RSUExampleScenario.node[88].veinsmobility 	totalCO2Emission 	708.34749358313
scalar RSUExampleScenario.node[89].veinsmobility 	startTime 	534.1
scalar RSUExampleScenario.node[89].veinsmobility 	totalTime 	226.8
scalar RSUExampleScenario.node[89].veinsmobility 	stopTime 	761
scalar RSUExampleScenario.node[89].veinsmobility 	minSpeed 	0.25789817097341
scalar RSUExampleScenario.node[89].veinsmobility 	maxSpeed 	18.999737836462
scalar RSUExampleScenario.node[89].veinsmobility 	totalDistance 	3409.9122936095
scalar RSUExampleScenario.node[89].veinsmobility 	totalCO2Emission 	708.53769380798
scalar RSUExampleScenario.node[90].veinsmobility 	startTime 	540.1
scalar RSUExampleScenario.node[90].veinsmobility 	totalTime 	227.1
scalar RSUExampleScenario.node[90].veinsmobility 	stopTime 	767.3
scalar RSUExampleScenario.node[90].veinsmobility 	minSpeed 	0.25728476002836
scalar RSUExampleScenario.node[90].veinsmobility 	maxSpeed 	18.999822642298
scalar RSUExampleScenario.node[90].veinsmobility 	totalDistance 	3409.2440151042
scalar RSUExampleScenario.node[90].veinsmobility 	totalCO2Emission 	709.17078729861
scalar RSUExampleScenario.node[91].veinsmobility 	startTime 	546.1
scalar RSUExampleScenario.node[91].veinsmobility 	totalTime 	227
scalar RSUExampleScenario.node[91].veinsmobility 	stopTime 	773.2
scalar RSUExampleScenario.node[91].veinsmobility 	minSpeed 	0.24748671925673
scalar RSUExampleScenario.node[91].veinsmobility 	maxSpeed 	18.999448047397
scalar RSUExampleScenario.node[91].veinsmobility 	totalDistance 	3409.397547409
scalar RSUExampleScenario.node[91].veinsmobility 	totalCO2Emission 	707.17856404439
scalar RSUExampleScenario.node[92].veinsmobility 	startTime 	552.1
scalar RSUExampleScenario.node[92].veinsmobility 	totalTime 	226.7
scalar RSUExampleScenario.node[92].veinsmobility 	stopTime 	778.9
scalar RSUExampleScenario.node[92].veinsmobility 	minSpeed 	0.24972102324804
scalar RSUExampleScenario.node[92].veinsmobility 	maxSpeed 	18.99992991969
scalar RSUExampleScenario.node[92].veinsmobility 	totalDistance 	3409.5561773049
scalar RSUExampleScenario.node[92].veinsmobility 	totalCO2Emission 	707.85114574588
scalar RSUExampleScenario.node[93].veinsmobility 	startTime 	558.1
scalar RSUExampleScenario.node[93].veinsmobility 	totalTime 	227.2
scalar RSUExampleScenario.node[93].veinsmobility 	stopTime 	785.4
scalar RSUExampleScenario.node[93].veinsmobility 	minSpeed 	0.25545801196131
scalar RSUExampleScenario.node[93].veinsmobility 	maxSpeed 	18.999188259533
scalar RSUExampleScenario.node[93].veinsmobility 	totalDistance 	3409.5706011557
scalar RSUExampleScenario.node[93].veinsmobility 	totalCO2Emission 	706.89747353677
scalar RSUExampleScenario.node[94].veinsmobility 	startTime 	564.1
scalar RSUExampleScenario.node[94].veinsmobility 	totalTime 	226.9
scalar RSUExampleScenario.node[94].veinsmobility 	stopTime 	791.1
scalar RSUExampleScenario.node[94].veinsmobility 	minSpeed 	0.25487877365155
scalar RSUExampleScenario.node[94].veinsmobility 	maxSpeed 	18.999865134037
scalar RSUExampleScenario.node[94].veinsmobility 	totalDistance 	3409.7026176103
scalar RSUExampleScenario.node[94].veinsmobility 	totalCO2Emission 	709.62681311131
scalar RSUExampleScenario.node[95].veinsmobility 	startTime 	570.1
scalar RSUExampleScenario.node[95].veinsmobility 	totalTime 	226.7
scalar RSUExampleScenario.node[95].veinsmobility 	stopTime 	796.9
scalar RSUExampleScenario.node[95].veinsmobility 	minSpeed 	0.25324137676624
scalar RSUExampleScenario.node[95].veinsmobility 	maxSpeed 	18.999913983354
scalar RSUExampleScenario.node[95].veinsmobility 	totalDistance 	3409.6595904893
scalar RSUExampleScenario.node[95].veinsmobility 	totalCO2Emission 	706.05752221038
scalar RSUExampleScenario.node[96].veinsmobility 	startTime 	576.1
scalar RSUExampleScenario.node[96].veinsmobility 	totalTime 	227
scalar RSUExampleScenario.node[96].veinsmobility 	stopTime 	803.2
scalar RSUExampleScenario.node[96].veinsmobility 	minSpeed 	0.25326620602002
scalar RSUExampleScenario.node[96].veinsmobility 	maxSpeed 	18.999672924017
scalar RSUExampleScenario.node[96].veinsmobility 	totalDistance 	3409.4964262466
scalar RSUExampleScenario.node[96].veinsmobility 	totalCO2Emission 	706.56230454934
scalar RSUExampleScenario.node[97].veinsmobility 	startTime 	582.1
scalar RSUExampleScenario.node[97].veinsmobility 	totalTime 	227.1
scalar RSUExampleScenario.node[97].veinsmobility 	stopTime 	809.3
scalar RSUExampleScenario.node[97].veinsmobility 	minSpeed 	0.25851361488877
scalar RSUExampleScenario.node[97].veinsmobility 	maxSpeed 	18.99991765368
scalar RSUExampleScenario.node[97].veinsmobility 	totalDistance 	3409.3068555586
scalar RSUExampleScenario.node[97].veinsmobility 	totalCO2Emission 	702.76416760651
scalar RSUExampleScenario.node[98].veinsmobility 	startTime 	588.1
scalar RSUExampleScenario.node[98].veinsmobility 	totalTime 	227
scalar RSUExampleScenario.node[98].veinsmobility 	stopTime 	815.2
scalar RSUExampleScenario.node[98].veinsmobility 	minSpeed 	0.25852944732946
scalar RSUExampleScenario.node[98].veinsmobility 	maxSpeed 	18.999904197776
scalar RSUExampleScenario.node[98].veinsmobility 	totalDistance 	3409.5895222332
scalar RSUExampleScenario.node[98].veinsmobility 	totalCO2Emission 	706.46920266534
scalar RSUExampleScenario.node[99].veinsmobility 	startTime 	594.1
scalar RSUExampleScenario.node[99].veinsmobility 	totalTime 	226.9
scalar RSUExampleScenario.node[99].veinsmobility 	stopTime 	821.1
scalar RSUExampleScenario.node[99].veinsmobility 	minSpeed 	0.24703771146806
scalar RSUExampleScenario.node[99].veinsmobility 	maxSpeed 	18.999945921374
scalar RSUExampleScenario.node[99].veinsmobility 	totalDistance 	3409.7486473675
scalar RSUExampleScenario.node[99].veinsmobility 	totalCO2Emission 	705.64609503943
scalar RSUExampleScenario.node[100].veinsmobility 	startTime 	600.1
scalar RSUExampleScenario.node[100].veinsmobility 	totalTime 	226.8
scalar RSUExampleScenario.node[100].veinsmobility 	stopTime 	827
scalar RSUExampleScenario.node[100].veinsmobility 	minSpeed 	0.25805483936146
scalar RSUExampleScenario.node[100].veinsmobility 	maxSpeed 	18.999861114752
scalar RSUExampleScenario.node[100].veinsmobility 	totalDistance 	3409.6017991354
scalar RSUExampleScenario.node[100].veinsmobility 	totalCO2Emission 	714.62228038709
scalar RSUExampleScenario.node[101].veinsmobility 	startTime 	606.1
scalar RSUExampleScenario.node[101].veinsmobility 	totalTime 	227
scalar RSUExampleScenario.node[101].veinsmobility 	stopTime 	833.2
scalar RSUExampleScenario.node[101].veinsmobility 	minSpeed 	0.25617367416644
scalar RSUExampleScenario.node[101].veinsmobility 	maxSpeed 	18.999806005955
scalar RSUExampleScenario.node[101].veinsmobility 	totalDistance 	3409.0832597302
scalar RSUExampleScenario.node[101].veinsmobility 	totalCO2Emission 	710.76568724446
scalar RSUExampleScenario.node[102].veinsmobility 	startTime 	612.1
scalar RSUExampleScenario.node[102].veinsmobility 	totalTime 	226.8
scalar RSUExampleScenario.node[102].veinsmobility 	stopTime 	839
scalar RSUExampleScenario.node[102].veinsmobility 	minSpeed 	0.25350572137535
scalar RSUExampleScenario.node[102].veinsmobility 	maxSpeed 	18.999966888612
scalar RSUExampleScenario.node[102].veinsmobility 	totalDistance 	3409.2100238274
scalar RSUExampleScenario.node[102].veinsmobility 	totalCO2Emission 	708.83833221612
scalar RSUExampleScenario.node[103].veinsmobility 	startTime 	618.1
scalar RSUExampleScenario.node[103].veinsmobility 	totalTime 	226.8
scalar RSUExampleScenario.node[103].veinsmobility 	stopTime 	845
scalar RSUExampleScenario.node[103].veinsmobility 	minSpeed 	0.25156750918226
scalar RSUExampleScenario.node[103].veinsmobility 	maxSpeed 	18.999901830184
scalar RSUExampleScenario.node[103].veinsmobility 	totalDistance 	3409.438968017
scalar RSUExampleScenario.node[103].veinsmobility 	totalCO2Emission 	707.37468311992
scalar RSUExampleScenario.node[104].veinsmobility 	startTime 	624.1
scalar RSUExampleScenario.node[104].veinsmobility 	totalTime 	227
scalar RSUExampleScenario.node[104].veinsmobility 	stopTime 	851.2
scalar RSUExampleScenario.node[104].veinsmobility 	minSpeed 	0.24832597075449
scalar RSUExampleScenario.node[104].veinsmobility 	maxSpeed 	18.999837032878
scalar RSUExampleScenario.node[104].veinsmobility 	totalDistance 	3409.551534746
scalar RSUExampleScenario.node[104].veinsmobility 	totalCO2Emission 	705.2569356104
scalar RSUExampleScenario.node[105].veinsmobility 	startTime 	630.1
scalar RSUExampleScenario.node[105].veinsmobility 	totalTime 	226.8
scalar RSUExampleScenario.node[105].veinsmobility 	stopTime 	857
scalar RSUExampleScenario.node[105].veinsmobility 	minSpeed 	0.25660404700786
scalar RSUExampleScenario.node[105].veinsmobility 	maxSpeed 	18.998811695306
scalar RSUExampleScenario.node[105].veinsmobility 	totalDistance 	3409.6070983723
scalar RSUExampleScenario.node[105].veinsmobility 	totalCO2Emission 	710.544949928
scalar RSUExampleScenario.node[106].veinsmobility 	startTime 	636.1
scalar RSUExampleScenario.node[106].veinsmobility 	totalTime 	226.9
scalar RSUExampleScenario.node[106].veinsmobility 	stopTime 	863.1
scalar RSUExampleScenario.node[106].veinsmobility 	minSpeed 	0.25568806391349
scalar RSUExampleScenario.node[106].veinsmobility 	maxSpeed 	18.999760544805
scalar RSUExampleScenario.node[106].veinsmobility 	totalDistance 	3409.666176439
scalar RSUExampleScenario.node[106].veinsmobility 	totalCO2Emission 	705.72213120336
scalar RSUExampleScenario.node[107].veinsmobility 	startTime 	642.1
scalar RSUExampleScenario.node[107].veinsmobility 	totalTime 	227.1
scalar RSUExampleScenario.node[107].veinsmobility 	stopTime 	869.3
scalar RSUExampleScenario.node[107].veinsmobility 	minSpeed 	0.2485329952091
scalar RSUExampleScenario.node[107].veinsmobility 	maxSpeed 	18.99994629818
scalar RSUExampleScenario.node[107].veinsmobility 	totalDistance 	3410.0535622959
scalar RSUExampleScenario.node[107].veinsmobility 	totalCO2Emission 	710.45979310964
scalar RSUExampleScenario.node[108].veinsmobility 	startTime 	648.1
scalar RSUExampleScenario.node[108].veinsmobility 	totalTime 	227.3
scalar RSUExampleScenario.node[108].veinsmobility 	stopTime 	875.5
scalar RSUExampleScenario.node[108].veinsmobility 	minSpeed 	0.24734770357748
scalar RSUExampleScenario.node[108].veinsmobility 	maxSpeed 	18.999892608952
scalar RSUExampleScenario.node[108].veinsmobility 	totalDistance 	3409.3356685083
scalar RSUExampleScenario.node[108].veinsmobility 	totalCO2Emission 	709.17535900929
scalar RSUExampleScenario.node[109].veinsmobility 	startTime 	654.1
scalar RSUExampleScenario.node[109].veinsmobility 	totalTime 	227
scalar RSUExampleScenario.node[109].veinsmobility 	stopTime 	881.2
scalar RSUExampleScenario.node[109].veinsmobility 	minSpeed 	0.25315544442297
scalar RSUExampleScenario.node[109].veinsmobility 	maxSpeed 	18.999819162691
scalar RSUExampleScenario.node[109].veinsmobility 	totalDistance 	3409.3149704231
scalar RSUExampleScenario.node[109].veinsmobility 	totalCO2Emission 	703.12715037602
scalar RSUExampleScenario.node[110].veinsmobility 	startTime 	660.1
scalar RSUExampleScenario.node[110].veinsmobility 	totalTime 	226.8
scalar RSUExampleScenario.node[110].veinsmobility 	stopTime 	887
scalar RSUExampleScenario.node[110].veinsmobility 	minSpeed 	0.25698920842283
scalar RSUExampleScenario.node[110].veinsmobility 	maxSpeed 	18.999980571254
scalar RSUExampleScenario.node[110].veinsmobility 	totalDistance 	3409.7488763195
scalar RSUExampleScenario.node[110].veinsmobility 	totalCO2Emission 	712.40223667734
scalar RSUExampleScenario.node[111].veinsmobility 	startTime 	666.1
scalar RSUExampleScenario.node[111].veinsmobility 	totalTime 	227.1
scalar RSUExampleScenario.node[111].veinsmobility 	stopTime 	893.3
scalar RSUExampleScenario.node[111].veinsmobility 	minSpeed 	0.25684940376924
scalar RSUExampleScenario.node[111].veinsmobility 	maxSpeed 	18.999845615092
scalar RSUExampleScenario.node[111].veinsmobility 	totalDistance 	3409.2313053533
scalar RSUExampleScenario.node[111].veinsmobility 	totalCO2Emission 	703.99471672994
scalar RSUExampleScenario.node[112].veinsmobility 	startTime 	672.1
scalar RSUExampleScenario.node[112].veinsmobility 	totalTime 	226.9
scalar RSUExampleScenario.node[112].veinsmobility 	stopTime 	899.1
scalar RSUExampleScenario.node[112].veinsmobility 	minSpeed 	0.24967999115819
scalar RSUExampleScenario.node[112].veinsmobility 	maxSpeed 	18.999928252166
scalar RSUExampleScenario.node[112].veinsmobility 	totalDistance 	3409.4349357923
scalar RSUExampleScenario.node[112].veinsmobility 	totalCO2Emission 	708.91573793435
scalar RSUExampleScenario.node[113].veinsmobility 	startTime 	678.1
scalar RSUExampleScenario.node[113].veinsmobility 	totalTime 	227.2
scalar RSUExampleScenario.node[113].veinsmobility 	stopTime 	905.4
scalar RSUExampleScenario.node[113].veinsmobility 	minSpeed 	0.25308313899231
scalar RSUExampleScenario.node[113].veinsmobility 	maxSpeed 	18.999984018262
scalar RSUExampleScenario.node[113].veinsmobility 	totalDistance 	3409.7439565566
scalar RSUExampleScenario.node[113].veinsmobility 	totalCO2Emission 	709.59711308658
scalar RSUExampleScenario.node[114].veinsmobility 	startTime 	684.1
scalar RSUExampleScenario.node[114].veinsmobility 	totalTime 	227
scalar RSUExampleScenario.node[114].veinsmobility 	stopTime 	911.2
scalar RSUExampleScenario.node[114].veinsmobility 	minSpeed 	0.25060896307067
scalar RSUExampleScenario.node[114].veinsmobility 	maxSpeed 	18.999645112643
scalar RSUExampleScenario.node[114].veinsmobility 	totalDistance 	3409.3006133438
scalar RSUExampleScenario.node[114].veinsmobility 	totalCO2Emission 	706.48594515472
scalar RSUExampleScenario.node[115].veinsmobility 	startTime 	690.1
scalar RSUExampleScenario.node[115].veinsmobility 	totalTime 	226.9
scalar RSUExampleScenario.node[115].veinsmobility 	stopTime 	917.1
scalar RSUExampleScenario.node[115].veinsmobility 	minSpeed 	0.24962853711145
scalar RSUExampleScenario.node[115].veinsmobility 	maxSpeed 	18.999840234232
scalar RSUExampleScenario.node[115].veinsmobility 	totalDistance 	3409.3832580694
scalar RSUExampleScenario.node[115].veinsmobility 	totalCO2Emission 	702.71792043863
scalar RSUExampleScenario.node[116].veinsmobility 	startTime 	696.1
scalar RSUExampleScenario.node[116].veinsmobility 	totalTime 	226.9
scalar RSUExampleScenario.node[116].veinsmobility 	stopTime 	923.1
scalar RSUExampleScenario.node[116].veinsmobility 	minSpeed 	0.25454600693658
scalar RSUExampleScenario.node[116].veinsmobility 	maxSpeed 	18.999709943123
scalar RSUExampleScenario.node[116].veinsmobility 	totalDistance 	3409.5381299784
scalar RSUExampleScenario.node[116].veinsmobility 	totalCO2Emission 	711.76894617803
scalar RSUExampleScenario.node[117].veinsmobility 	startTime 	702.1
scalar RSUExampleScenario.node[117].veinsmobility 	totalTime 	226.9
scalar RSUExampleScenario.node[117].veinsmobility 	stopTime 	929.1
scalar RSUExampleScenario.node[117].veinsmobility 	minSpeed 	0.25519906447874
scalar RSUExampleScenario.node[117].veinsmobility 	maxSpeed 	18.999997191434
scalar RSUExampleScenario.node[117].veinsmobility 	totalDistance 	3409.3437853402
scalar RSUExampleScenario.node[117].veinsmobility 	totalCO2Emission 	712.77142213664
scalar RSUExampleScenario.node[118].veinsmobility 	startTime 	708.1
scalar RSUExampleScenario.node[118].veinsmobility 	totalTime 	226.9
scalar RSUExampleScenario.node[118].veinsmobility 	stopTime 	935.1
scalar RSUExampleScenario.node[118].veinsmobility 	minSpeed 	0.258836218538
scalar RSUExampleScenario.node[118].veinsmobility 	maxSpeed 	18.999427023618
scalar RSUExampleScenario.node[118].veinsmobility 	totalDistance 	3409.6755920128
scalar RSUExampleScenario.node[118].veinsmobility 	totalCO2Emission 	703.53919160092
scalar RSUExampleScenario.node[119].veinsmobility 	startTime 	714.1
scalar RSUExampleScenario.node[119].veinsmobility 	totalTime 	226.8
scalar RSUExampleScenario.node[119].veinsmobility 	stopTime 	941
scalar RSUExampleScenario.node[119].veinsmobility 	minSpeed 	0.25934235534188
scalar RSUExampleScenario.node[119].veinsmobility 	maxSpeed 	18.999774778537
scalar RSUExampleScenario.node[119].veinsmobility 	totalDistance 	3409.5692326424
scalar RSUExampleScenario.node[119].veinsmobility 	totalCO2Emission 	708.62184988208
scalar RSUExampleScenario.node[120].veinsmobility 	startTime 	720.1
scalar RSUExampleScenario.node[120].veinsmobility 	totalTime 	227
scalar RSUExampleScenario.node[120].veinsmobility 	stopTime 	947.2
scalar RSUExampleScenario.node[120].veinsmobility 	minSpeed 	0.2519314371557
scalar RSUExampleScenario.node[120].veinsmobility 	maxSpeed 	18.999936537088
scalar RSUExampleScenario.node[120].veinsmobility 	totalDistance 	3409.3577448341
scalar RSUExampleScenario.node[120].veinsmobility 	totalCO2Emission 	701.8783622171
scalar RSUExampleScenario.node[121].veinsmobility 	startTime 	726.1
scalar RSUExampleScenario.node[121].veinsmobility 	totalTime 	227.1
scalar RSUExampleScenario.node[121].veinsmobility 	stopTime 	953.3
scalar RSUExampleScenario.node[121].veinsmobility 	minSpeed 	0.25952558923699
scalar RSUExampleScenario.node[121].veinsmobility 	maxSpeed 	18.999860434297
scalar RSUExampleScenario.node[121].veinsmobility 	totalDistance 	3409.1403474704
scalar RSUExampleScenario.node[121].veinsmobility 	totalCO2Emission 	705.86221773806
scalar RSUExampleScenario.node[122].veinsmobility 	startTime 	732.1
scalar RSUExampleScenario.node[122].veinsmobility 	totalTime 	227.2
scalar RSUExampleScenario.node[122].veinsmobility 	stopTime 	959.4
scalar RSUExampleScenario.node[122].veinsmobility 	minSpeed 	0.25125278177089
scalar RSUExampleScenario.node[122].veinsmobility 	maxSpeed 	18.999534746979
scalar RSUExampleScenario.node[122].veinsmobility 	totalDistance 	3409.6331714471
scalar RSUExampleScenario.node[122].veinsmobility 	totalCO2Emission 	710.3256188829
scalar RSUExampleScenario.node[123].veinsmobility 	startTime 	738.1
scalar RSUExampleScenario.node[123].veinsmobility 	totalTime 	226.7
scalar RSUExampleScenario.node[123].veinsmobility 	stopTime 	964.9
scalar RSUExampleScenario.node[123].veinsmobility 	minSpeed 	0.2513161404517
scalar RSUExampleScenario.node[123].veinsmobility 	maxSpeed 	18.999913543924
scalar RSUExampleScenario.node[123].veinsmobility 	totalDistance 	3409.6024003459
scalar RSUExampleScenario.node[123].veinsmobility 	totalCO2Emission 	708.71757359433
scalar RSUExampleScenario.node[124].veinsmobility 	startTime 	744.1
scalar RSUExampleScenario.node[124].veinsmobility 	totalTime 	226.8
scalar RSUExampleScenario.node[124].veinsmobility 	stopTime 	971
scalar RSUExampleScenario.node[124].veinsmobility 	minSpeed 	0.24788824864686
scalar RSUExampleScenario.node[124].veinsmobility 	maxSpeed 	18.99999963067
scalar RSUExampleScenario.node[124].veinsmobility 	totalDistance 	3409.4314504748
scalar RSUExampleScenario.node[124].veinsmobility 	totalCO2Emission 	706.16672610834
scalar RSUExampleScenario.node[125].veinsmobility 	startTime 	750.1
scalar RSUExampleScenario.node[125].veinsmobility 	totalTime 	226.9
scalar RSUExampleScenario.node[125].veinsmobility 	stopTime 	977.1
scalar RSUExampleScenario.node[125].veinsmobility 	minSpeed 	0.25079429681622
scalar RSUExampleScenario.node[125].veinsmobility 	maxSpeed 	18.99975492958
scalar RSUExampleScenario.node[125].veinsmobility 	totalDistance 	3409.368604937
scalar RSUExampleScenario.node[125].veinsmobility 	totalCO2Emission 	710.82712735107
scalar RSUExampleScenario.node[126].veinsmobility 	startTime 	756.1
scalar RSUExampleScenario.node[126].veinsmobility 	totalTime 	226.8
scalar RSUExampleScenario.node[126].veinsmobility 	stopTime 	983
scalar RSUExampleScenario.node[126].veinsmobility 	minSpeed 	0.24950895823888
scalar RSUExampleScenario.node[126].veinsmobility 	maxSpeed 	18.999769616665
scalar RSUExampleScenario.node[126].veinsmobility 	totalDistance 	3409.4907313282
scalar RSUExampleScenario.node[126].veinsmobility 	totalCO2Emission 	704.71563647577
scalar RSUExampleScenario.node[127].veinsmobility 	startTime 	762.1
scalar RSUExampleScenario.node[127].veinsmobility 	totalTime 	227.2
scalar RSUExampleScenario.node[127].veinsmobility 	stopTime 	989.4
scalar RSUExampleScenario.node[127].veinsmobility 	minSpeed 	0.25449773760838
scalar RSUExampleScenario.node[127].veinsmobility 	maxSpeed 	18.999435702146
scalar RSUExampleScenario.node[127].veinsmobility 	totalDistance 	3410.0055075649
scalar RSUExampleScenario.node[127].veinsmobility 	totalCO2Emission 	706.30629778229
scalar RSUExampleScenario.node[128].veinsmobility 	startTime 	768.1
scalar RSUExampleScenario.node[128].veinsmobility 	totalTime 	226.7
scalar RSUExampleScenario.node[128].veinsmobility 	stopTime 	994.9
scalar RSUExampleScenario.node[128].veinsmobility 	minSpeed 	0.2550333464751
scalar RSUExampleScenario.node[128].veinsmobility 	maxSpeed 	18.999908925968
scalar RSUExampleScenario.node[128].veinsmobility 	totalDistance 	3409.3637088836
scalar RSUExampleScenario.node[128].veinsmobility 	totalCO2Emission 	710.21083406369
scalar RSUExampleScenario.node[129].veinsmobility 	startTime 	774.1
scalar RSUExampleScenario.node[129].veinsmobility 	totalTime 	226.9
scalar RSUExampleScenario.node[129].veinsmobility 	stopTime 	1001.1
scalar RSUExampleScenario.node[129].veinsmobility 	minSpeed 	0.24715229833289
scalar RSUExampleScenario.node[129].veinsmobility 	maxSpeed 	18.999776860278
scalar RSUExampleScenario.node[129].veinsmobility 	totalDistance 	3409.1705580243
scalar RSUExampleScenario.node[129].veinsmobility 	totalCO2Emission 	704.31456975434
scalar RSUExampleScenario.node[130].veinsmobility 	startTime 	780.1
scalar RSUExampleScenario.node[130].veinsmobility 	totalTime 	226.8
scalar RSUExampleScenario.node[130].veinsmobility 	stopTime 	1007
scalar RSUExampleScenario.node[130].veinsmobility 	minSpeed 	0.25904818344186
scalar RSUExampleScenario.node[130].veinsmobility 	maxSpeed 	18.999839109443
scalar RSUExampleScenario.node[130].veinsmobility 	totalDistance 	3409.1809246944
scalar RSUExampleScenario.node[130].veinsmobility 	totalCO2Emission 	710.66026270664
scalar RSUExampleScenario.node[131].veinsmobility 	startTime 	786.1
scalar RSUExampleScenario.node[131].veinsmobility 	totalTime 	227
scalar RSUExampleScenario.node[131].veinsmobility 	stopTime 	1013.2
scalar RSUExampleScenario.node[131].veinsmobility 	minSpeed 	0.25367229329026
scalar RSUExampleScenario.node[131].veinsmobility 	maxSpeed 	18.99907994522
scalar RSUExampleScenario.node[131].veinsmobility 	totalDistance 	3409.8106898068
scalar RSUExampleScenario.node[131].veinsmobility 	totalCO2Emission 	705.84303370496
scalar RSUExampleScenario.node[132].veinsmobility 	startTime 	792.1
scalar RSUExampleScenario.node[132].veinsmobility 	totalTime 	227.2
scalar RSUExampleScenario.node[132].veinsmobility 	stopTime 	1019.4
scalar RSUExampleScenario.node[132].veinsmobility 	minSpeed 	0.25314588998584
scalar RSUExampleScenario.node[132].veinsmobility 	maxSpeed 	18.999806370866
scalar RSUExampleScenario.node[132].veinsmobility 	totalDistance 	3409.7982569563
scalar RSUExampleScenario.node[132].veinsmobility 	totalCO2Emission 	708.06979766574
scalar RSUExampleScenario.node[133].veinsmobility 	startTime 	798.1
scalar RSUExampleScenario.node[133].veinsmobility 	totalTime 	226.9
scalar RSUExampleScenario.node[133].veinsmobility 	stopTime 	1025.1
scalar RSUExampleScenario.node[133].veinsmobility 	minSpeed 	0.25321451691817
scalar RSUExampleScenario.node[133].veinsmobility 	maxSpeed 	18.999578298158
scalar RSUExampleScenario.node[133].veinsmobility 	totalDistance 	3409.5095511189
scalar RSUExampleScenario.node[133].veinsmobility 	totalCO2Emission 	710.78228367096
scalar RSUExampleScenario.node[134].veinsmobility 	startTime 	804.1
scalar RSUExampleScenario.node[134].veinsmobility 	totalTime 	226.9
scalar RSUExampleScenario.node[134].veinsmobility 	stopTime 	1031.1
scalar RSUExampleScenario.node[134].veinsmobility 	minSpeed 	0.25616004642448
scalar RSUExampleScenario.node[134].veinsmobility 	maxSpeed 	18.999774439565
scalar RSUExampleScenario.node[134].veinsmobility 	totalDistance 	3410.0109660713
scalar RSUExampleScenario.node[134].veinsmobility 	totalCO2Emission 	707.40203784392
scalar RSUExampleScenario.node[135].veinsmobility 	startTime 	810.1
scalar RSUExampleScenario.node[135].veinsmobility 	totalTime 	226.6
scalar RSUExampleScenario.node[135].veinsmobility 	stopTime 	1036.8
scalar RSUExampleScenario.node[135].veinsmobility 	minSpeed 	0.25048223554203
scalar RSUExampleScenario.node[135].veinsmobility 	maxSpeed 	18.999898772512
scalar RSUExampleScenario.node[135].veinsmobility 	totalDistance 	3409.5812515493
scalar RSUExampleScenario.node[135].veinsmobility 	totalCO2Emission 	708.19474796875
scalar RSUExampleScenario.node[136].veinsmobility 	startTime 	816.1
scalar RSUExampleScenario.node[136].veinsmobility 	totalTime 	226.5
scalar RSUExampleScenario.node[136].veinsmobility 	stopTime 	1042.7
scalar RSUExampleScenario.node[136].veinsmobility 	minSpeed 	0.24873796805739
scalar RSUExampleScenario.node[136].veinsmobility 	maxSpeed 	18.999939295955
scalar RSUExampleScenario.node[136].veinsmobility 	totalDistance 	3409.2927272441
scalar RSUExampleScenario.node[136].veinsmobility 	totalCO2Emission 	703.78968867343
scalar RSUExampleScenario.node[137].veinsmobility 	startTime 	822.1
scalar RSUExampleScenario.node[137].veinsmobility 	totalTime 	226.8
scalar RSUExampleScenario.node[137].veinsmobility 	stopTime 	1049
scalar RSUExampleScenario.node[137].veinsmobility 	minSpeed 	0.2571109928689
scalar RSUExampleScenario.node[137].veinsmobility 	maxSpeed 	18.999826063095
scalar RSUExampleScenario.node[137].veinsmobility 	totalDistance 	3409.4566901307
scalar RSUExampleScenario.node[137].veinsmobility 	totalCO2Emission 	706.46869858974
scalar RSUExampleScenario.node[138].veinsmobility 	startTime 	828.1
scalar RSUExampleScenario.node[138].veinsmobility 	totalTime 	227.1
scalar RSUExampleScenario.node[138].veinsmobility 	stopTime 	1055.3
scalar RSUExampleScenario.node[138].veinsmobility 	minSpeed 	0.25962671424658
scalar RSUExampleScenario.node[138].veinsmobility 	maxSpeed 	18.99997900092
scalar RSUExampleScenario.node[138].veinsmobility 	totalDistance 	3409.330824378
scalar RSUExampleScenario.node[138].veinsmobility 	totalCO2Emission 	710.02783928085
scalar RSUExampleScenario.node[139].veinsmobility 	startTime 	834.1
scalar RSUExampleScenario.node[139].veinsmobility 	totalTime 	226.6
scalar RSUExampleScenario.node[139].veinsmobility 	stopTime 	1060.8
scalar RSUExampleScenario.node[139].veinsmobility 	minSpeed 	0.25218391654873
scalar RSUExampleScenario.node[139].veinsmobility 	maxSpeed 	18.999862440156
scalar RSUExampleScenario.node[139].veinsmobility 	totalDistance 	3409.231854081
scalar RSUExampleScenario.node[139].veinsmobility 	totalCO2Emission 	712.10060612289
scalar RSUExampleScenario.node[140].veinsmobility 	startTime 	840.1
scalar RSUExampleScenario.node[140].veinsmobility 	totalTime 	226.7
scalar RSUExampleScenario.node[140].veinsmobility 	stopTime 	1066.9
scalar RSUExampleScenario.node[140].veinsmobility 	minSpeed 	0.25800372257875
scalar RSUExampleScenario.node[140].veinsmobility 	maxSpeed 	18.999157488586
scalar RSUExampleScenario.node[140].veinsmobility 	totalDistance 	3409.2761853564
scalar RSUExampleScenario.node[140].veinsmobility 	totalCO2Emission 	707.1304395091
scalar RSUExampleScenario.node[141].veinsmobility 	startTime 	846.1
scalar RSUExampleScenario.node[141].veinsmobility 	totalTime 	227
scalar RSUExampleScenario.node[141].veinsmobility 	stopTime 	1073.2
scalar RSUExampleScenario.node[141].veinsmobility 	minSpeed 	0.25375593204983
scalar RSUExampleScenario.node[141].veinsmobility 	maxSpeed 	18.99998063751
scalar RSUExampleScenario.node[141].veinsmobility 	totalDistance 	3409.689486395
scalar RSUExampleScenario.node[141].veinsmobility 	totalCO2Emission 	708.89406140346
scalar RSUExampleScenario.node[142].veinsmobility 	startTime 	852.1
scalar RSUExampleScenario.node[142].veinsmobility 	totalTime 	227.1
scalar RSUExampleScenario.node[142].veinsmobility 	stopTime 	1079.3
scalar RSUExampleScenario.node[142].veinsmobility 	minSpeed 	0.25022365889675
scalar RSUExampleScenario.node[142].veinsmobility 	maxSpeed 	18.999971921027
scalar RSUExampleScenario.node[142].veinsmobility 	totalDistance 	3409.2415852952
scalar RSUExampleScenario.node[142].veinsmobility 	totalCO2Emission 	705.91790292159
scalar RSUExampleScenario.node[143].veinsmobility 	startTime 	858.1
scalar RSUExampleScenario.node[143].veinsmobility 	totalTime 	226.8
scalar RSUExampleScenario.node[143].veinsmobility 	stopTime 	1085
scalar RSUExampleScenario.node[143].veinsmobility 	minSpeed 	0.24746309589758
scalar RSUExampleScenario.node[143].veinsmobility 	maxSpeed 	18.999783068302
scalar RSUExampleScenario.node[143].veinsmobility 	totalDistance 	3409.7376027939
scalar RSUExampleScenario.node[143].veinsmobility 	totalCO2Emission 	706.53351714206
scalar RSUExampleScenario.node[144].veinsmobility 	startTime 	864.1
scalar RSUExampleScenario.node[144].veinsmobility 	totalTime 	227.3
scalar RSUExampleScenario.node[144].veinsmobility 	stopTime 	1091.5
scalar RSUExampleScenario.node[144].veinsmobility 	minSpeed 	0.25149529969203
scalar RSUExampleScenario.node[144].veinsmobility 	maxSpeed 	18.999948801585
scalar RSUExampleScenario.node[144].veinsmobility 	totalDistance 	3409.1927140698
scalar RSUExampleScenario.node[144].veinsmobility 	totalCO2Emission 	706.05720583508
scalar RSUExampleScenario.node[145].veinsmobility 	startTime 	870.1
scalar RSUExampleScenario.node[145].veinsmobility 	totalTime 	227
scalar RSUExampleScenario.node[145].veinsmobility 	stopTime 	1097.2
scalar RSUExampleScenario.node[145].veinsmobility 	minSpeed 	0.24729245326575
scalar RSUExampleScenario.node[145].veinsmobility 	maxSpeed 	18.999907750511
scalar RSUExampleScenario.node[145].veinsmobility 	totalDistance 	3409.4997663532
scalar RSUExampleScenario.node[145].veinsmobility 	totalCO2Emission 	706.47809540115
scalar RSUExampleScenario.node[146].veinsmobility 	startTime 	876.1
scalar RSUExampleScenario.node[146].veinsmobility 	totalTime 	227.4
scalar RSUExampleScenario.node[146].veinsmobility 	stopTime 	1103.6
scalar RSUExampleScenario.node[146].veinsmobility 	minSpeed 	0.24772861059429
scalar RSUExampleScenario.node[146].veinsmobility 	maxSpeed 	18.999944792106
scalar RSUExampleScenario.node[146].veinsmobility 	totalDistance 	3410.0408082652
scalar RSUExampleScenario.node[146].veinsmobility 	totalCO2Emission 	708.29561001605
scalar RSUExampleScenario.node[147].veinsmobility 	startTime 	882.1
scalar RSUExampleScenario.node[147].veinsmobility 	totalTime 	227
scalar RSUExampleScenario.node[147].veinsmobility 	stopTime 	1109.2
scalar RSUExampleScenario.node[147].veinsmobility 	minSpeed 	0.25869615549874
scalar RSUExampleScenario.node[147].veinsmobility 	maxSpeed 	18.999760453093
scalar RSUExampleScenario.node[147].veinsmobility 	totalDistance 	3409.27749165
scalar RSUExampleScenario.node[147].veinsmobility 	totalCO2Emission 	705.04010543077
scalar RSUExampleScenario.node[148].veinsmobility 	startTime 	888.1
scalar RSUExampleScenario.node[148].veinsmobility 	totalTime 	226.6
scalar RSUExampleScenario.node[148].veinsmobility 	stopTime 	1114.8
scalar RSUExampleScenario.node[148].veinsmobility 	minSpeed 	0.25206474882737
scalar RSUExampleScenario.node[148].veinsmobility 	maxSpeed 	18.999878373072
scalar RSUExampleScenario.node[148].veinsmobility 	totalDistance 	3409.430254816
scalar RSUExampleScenario.node[148].veinsmobility 	totalCO2Emission 	705.79611877112
scalar RSUExampleScenario.node[149].veinsmobility 	startTime 	894.1
scalar RSUExampleScenario.node[149].veinsmobility 	totalTime 	227
scalar RSUExampleScenario.node[149].veinsmobility 	stopTime 	1121.2
scalar RSUExampleScenario.node[149].veinsmobility 	minSpeed 	0.24938515233947
scalar RSUExampleScenario.node[149].veinsmobility 	maxSpeed 	18.99989019278
scalar RSUExampleScenario.node[149].veinsmobility 	totalDistance 	3409.0900253209
scalar RSUExampleScenario.node[149].veinsmobility 	totalCO2Emission 	704.52159346607
scalar RSUExampleScenario.node[150].veinsmobility 	startTime 	900.1
scalar RSUExampleScenario.node[150].veinsmobility 	totalTime 	226.9
scalar RSUExampleScenario.node[150].veinsmobility 	stopTime 	1127.1
scalar RSUExampleScenario.node[150].veinsmobility 	minSpeed 	0.25455757327145
scalar RSUExampleScenario.node[150].veinsmobility 	maxSpeed 	18.999506160291
scalar RSUExampleScenario.node[150].veinsmobility 	totalDistance 	3409.1941884948
scalar RSUExampleScenario.node[150].veinsmobility 	totalCO2Emission 	703.84742804709
scalar RSUExampleScenario.node[151].veinsmobility 	startTime 	906.1
scalar RSUExampleScenario.node[151].veinsmobility 	totalTime 	227
scalar RSUExampleScenario.node[151].veinsmobility 	stopTime 	1133.2
scalar RSUExampleScenario.node[151].veinsmobility 	minSpeed 	0.25436090036738
scalar RSUExampleScenario.node[151].veinsmobility 	maxSpeed 	18.999963069488
scalar RSUExampleScenario.node[151].veinsmobility 	totalDistance 	3409.5960463129
scalar RSUExampleScenario.node[151].veinsmobility 	totalCO2Emission 	711.55794056838
scalar RSUExampleScenario.node[152].veinsmobility 	startTime 	912.1
scalar RSUExampleScenario.node[152].veinsmobility 	totalTime 	227
scalar RSUExampleScenario.node[152].veinsmobility 	stopTime 	1139.2
scalar RSUExampleScenario.node[152].veinsmobility 	minSpeed 	0.25682336430461
scalar RSUExampleScenario.node[152].veinsmobility 	maxSpeed 	18.999999976149
scalar RSUExampleScenario.node[152].veinsmobility 	totalDistance 	3409.1498150602
scalar RSUExampleScenario.node[152].veinsmobility 	totalCO2Emission 	709.65058519209
[...]
scalar RSUExampleScenario.node[262].veinsmobility 	startTime 	1572.1
scalar RSUExampleScenario.node[262].veinsmobility 	totalTime 	227.1
scalar RSUExampleScenario.node[262].veinsmobility 	stopTime 	1799.3
scalar RSUExampleScenario.node[262].veinsmobility 	minSpeed 	0.25739534205454
scalar RSUExampleScenario.node[262].veinsmobility 	maxSpeed 	18.999988896523
scalar RSUExampleScenario.node[262].veinsmobility 	totalDistance 	3409.4810890264
scalar RSUExampleScenario.node[262].veinsmobility 	totalCO2Emission 	706.55651002924
scalar RSUExampleScenario.node[263].veinsmobility 	startTime 	1578.1
scalar RSUExampleScenario.node[263].veinsmobility 	totalTime 	227.2
scalar RSUExampleScenario.node[263].veinsmobility 	stopTime 	1805.4
scalar RSUExampleScenario.node[263].veinsmobility 	minSpeed 	0.25170755130029
scalar RSUExampleScenario.node[263].veinsmobility 	maxSpeed 	18.999285635722
scalar RSUExampleScenario.node[263].veinsmobility 	totalDistance 	3409.3205626011
scalar RSUExampleScenario.node[263].veinsmobility 	totalCO2Emission 	706.5899090066
scalar RSUExampleScenario.node[264].veinsmobility 	startTime 	1584.1
scalar RSUExampleScenario.node[264].veinsmobility 	totalTime 	227
scalar RSUExampleScenario.node[264].veinsmobility 	stopTime 	1811.2
scalar RSUExampleScenario.node[264].veinsmobility 	minSpeed 	0.24988318470307
scalar RSUExampleScenario.node[264].veinsmobility 	maxSpeed 	18.999654018725
scalar RSUExampleScenario.node[264].veinsmobility 	totalDistance 	3409.9339519703
scalar RSUExampleScenario.node[264].veinsmobility 	totalCO2Emission 	705.27443084041
scalar RSUExampleScenario.node[265].veinsmobility 	startTime 	1590.1
scalar RSUExampleScenario.node[265].veinsmobility 	totalTime 	226.7
scalar RSUExampleScenario.node[265].veinsmobility 	stopTime 	1816.9
scalar RSUExampleScenario.node[265].veinsmobility 	minSpeed 	0.24762412676471
scalar RSUExampleScenario.node[265].veinsmobility 	maxSpeed 	18.999999603429
scalar RSUExampleScenario.node[265].veinsmobility 	totalDistance 	3409.6148431383
scalar RSUExampleScenario.node[265].veinsmobility 	totalCO2Emission 	707.48946783676
scalar RSUExampleScenario.node[266].veinsmobility 	startTime 	1596.1
scalar RSUExampleScenario.node[266].veinsmobility 	totalTime 	226.9
scalar RSUExampleScenario.node[266].veinsmobility 	stopTime 	1823.1
scalar RSUExampleScenario.node[266].veinsmobility 	minSpeed 	0.25833762510889
scalar RSUExampleScenario.node[266].veinsmobility 	maxSpeed 	18.99999167806
scalar RSUExampleScenario.node[266].veinsmobility 	totalDistance 	3409.4667800307
scalar RSUExampleScenario.node[266].veinsmobility 	totalCO2Emission 	707.32002953391
scalar RSUExampleScenario.node[267].veinsmobility 	startTime 	1602.1
scalar RSUExampleScenario.node[267].veinsmobility 	totalTime 	227.1
scalar RSUExampleScenario.node[267].veinsmobility 	stopTime 	1829.3
scalar RSUExampleScenario.node[267].veinsmobility 	minSpeed 	0.25503306116909
scalar RSUExampleScenario.node[267].veinsmobility 	maxSpeed 	18.999434732269
scalar RSUExampleScenario.node[267].veinsmobility 	totalDistance 	3409.3395452534
scalar RSUExampleScenario.node[267].veinsmobility 	totalCO2Emission 	707.06636541497
scalar RSUExampleScenario.node[268].veinsmobility 	startTime 	1608.1
scalar RSUExampleScenario.node[268].veinsmobility 	totalTime 	227
scalar RSUExampleScenario.node[268].veinsmobility 	stopTime 	1835.2
scalar RSUExampleScenario.node[268].veinsmobility 	minSpeed 	0.25276797169633
scalar RSUExampleScenario.node[268].veinsmobility 	maxSpeed 	18.999691054963
scalar RSUExampleScenario.node[268].veinsmobility 	totalDistance 	3409.1102122204
scalar RSUExampleScenario.node[268].veinsmobility 	totalCO2Emission 	706.38522500266
scalar RSUExampleScenario.node[269].veinsmobility 	startTime 	1614.1
scalar RSUExampleScenario.node[269].veinsmobility 	totalTime 	227.1
scalar RSUExampleScenario.node[269].veinsmobility 	stopTime 	1841.3
scalar RSUExampleScenario.node[269].veinsmobility 	minSpeed 	0.25486817425769
scalar RSUExampleScenario.node[269].veinsmobility 	maxSpeed 	18.999695874534
scalar RSUExampleScenario.node[269].veinsmobility 	totalDistance 	3409.6685619668
scalar RSUExampleScenario.node[269].veinsmobility 	totalCO2Emission 	711.46153998078
scalar RSUExampleScenario.node[270].veinsmobility 	startTime 	1620.1
scalar RSUExampleScenario.node[270].veinsmobility 	totalTime 	227
scalar RSUExampleScenario.node[270].veinsmobility 	stopTime 	1847.2
scalar RSUExampleScenario.node[270].veinsmobility 	minSpeed 	0.25641460910835
scalar RSUExampleScenario.node[270].veinsmobility 	maxSpeed 	18.999520206028
scalar RSUExampleScenario.node[270].veinsmobility 	totalDistance 	3409.1013442389
scalar RSUExampleScenario.node[270].veinsmobility 	totalCO2Emission 	701.9494921777
scalar RSUExampleScenario.node[271].veinsmobility 	startTime 	1626.1
scalar RSUExampleScenario.node[271].veinsmobility 	totalTime 	227.1
scalar RSUExampleScenario.node[271].veinsmobility 	stopTime 	1853.3
scalar RSUExampleScenario.node[271].veinsmobility 	minSpeed 	0.25823590692854
scalar RSUExampleScenario.node[271].veinsmobility 	maxSpeed 	18.999476990097
scalar RSUExampleScenario.node[271].veinsmobility 	totalDistance 	3409.9818209929
scalar RSUExampleScenario.node[271].veinsmobility 	totalCO2Emission 	709.50819553321
scalar RSUExampleScenario.node[272].veinsmobility 	startTime 	1632.1
scalar RSUExampleScenario.node[272].veinsmobility 	totalTime 	226.9
scalar RSUExampleScenario.node[272].veinsmobility 	stopTime 	1859.1
scalar RSUExampleScenario.node[272].veinsmobility 	minSpeed 	0.25992641485715
scalar RSUExampleScenario.node[272].veinsmobility 	maxSpeed 	18.999731422102
scalar RSUExampleScenario.node[272].veinsmobility 	totalDistance 	3409.5382685534
scalar RSUExampleScenario.node[272].veinsmobility 	totalCO2Emission 	707.3592759677
scalar RSUExampleScenario.node[273].veinsmobility 	startTime 	1638.1
scalar RSUExampleScenario.node[273].veinsmobility 	totalTime 	226.9
scalar RSUExampleScenario.node[273].veinsmobility 	stopTime 	1865.1
scalar RSUExampleScenario.node[273].veinsmobility 	minSpeed 	0.25812707623211
scalar RSUExampleScenario.node[273].veinsmobility 	maxSpeed 	18.999984913408
scalar RSUExampleScenario.node[273].veinsmobility 	totalDistance 	3409.3337413239
scalar RSUExampleScenario.node[273].veinsmobility 	totalCO2Emission 	706.0232405709
scalar RSUExampleScenario.node[274].veinsmobility 	startTime 	1644.1
scalar RSUExampleScenario.node[274].veinsmobility 	totalTime 	227.1
scalar RSUExampleScenario.node[274].veinsmobility 	stopTime 	1871.3
scalar RSUExampleScenario.node[274].veinsmobility 	minSpeed 	0.25717904421617
scalar RSUExampleScenario.node[274].veinsmobility 	maxSpeed 	18.999752285096
scalar RSUExampleScenario.node[274].veinsmobility 	totalDistance 	3409.5429570332
scalar RSUExampleScenario.node[274].veinsmobility 	totalCO2Emission 	709.44604063172
scalar RSUExampleScenario.node[275].veinsmobility 	startTime 	1650.1
scalar RSUExampleScenario.node[275].veinsmobility 	totalTime 	226.9
scalar RSUExampleScenario.node[275].veinsmobility 	stopTime 	1877.1
scalar RSUExampleScenario.node[275].veinsmobility 	minSpeed 	0.25597694964032
scalar RSUExampleScenario.node[275].veinsmobility 	maxSpeed 	18.999725770706
scalar RSUExampleScenario.node[275].veinsmobility 	totalDistance 	3409.8308030752
scalar RSUExampleScenario.node[275].veinsmobility 	totalCO2Emission 	709.53077233432
scalar RSUExampleScenario.node[276].veinsmobility 	startTime 	1656.1
scalar RSUExampleScenario.node[276].veinsmobility 	totalTime 	227
scalar RSUExampleScenario.node[276].veinsmobility 	stopTime 	1883.2
scalar RSUExampleScenario.node[276].veinsmobility 	minSpeed 	0.2525242628844
scalar RSUExampleScenario.node[276].veinsmobility 	maxSpeed 	18.999962193472
scalar RSUExampleScenario.node[276].veinsmobility 	totalDistance 	3409.6022521972
scalar RSUExampleScenario.node[276].veinsmobility 	totalCO2Emission 	711.28209307159
scalar RSUExampleScenario.node[277].veinsmobility 	startTime 	1662.1
scalar RSUExampleScenario.node[277].veinsmobility 	totalTime 	227
scalar RSUExampleScenario.node[277].veinsmobility 	stopTime 	1889.2
scalar RSUExampleScenario.node[277].veinsmobility 	minSpeed 	0.25536959778261
scalar RSUExampleScenario.node[277].veinsmobility 	maxSpeed 	18.999965310197
scalar RSUExampleScenario.node[277].veinsmobility 	totalDistance 	3409.2075611304
scalar RSUExampleScenario.node[277].veinsmobility 	totalCO2Emission 	701.76103935703
scalar RSUExampleScenario.node[278].veinsmobility 	startTime 	1668.1
scalar RSUExampleScenario.node[278].veinsmobility 	totalTime 	226.6
scalar RSUExampleScenario.node[278].veinsmobility 	stopTime 	1894.8
scalar RSUExampleScenario.node[278].veinsmobility 	minSpeed 	0.25554843251081
scalar RSUExampleScenario.node[278].veinsmobility 	maxSpeed 	18.99959749605
scalar RSUExampleScenario.node[278].veinsmobility 	totalDistance 	3409.2950016165
scalar RSUExampleScenario.node[278].veinsmobility 	totalCO2Emission 	708.66438088567
scalar RSUExampleScenario.node[279].veinsmobility 	startTime 	1674.1
scalar RSUExampleScenario.node[279].veinsmobility 	totalTime 	226.7
scalar RSUExampleScenario.node[279].veinsmobility 	stopTime 	1900.9
scalar RSUExampleScenario.node[279].veinsmobility 	minSpeed 	0.25098748194054
scalar RSUExampleScenario.node[279].veinsmobility 	maxSpeed 	18.999404940128
scalar RSUExampleScenario.node[279].veinsmobility 	totalDistance 	3409.046743008
scalar RSUExampleScenario.node[279].veinsmobility 	totalCO2Emission 	708.06427749769
scalar RSUExampleScenario.node[280].veinsmobility 	startTime 	1680.1
scalar RSUExampleScenario.node[280].veinsmobility 	totalTime 	226.7
scalar RSUExampleScenario.node[280].veinsmobility 	stopTime 	1906.9
scalar RSUExampleScenario.node[280].veinsmobility 	minSpeed 	0.25209015815496
scalar RSUExampleScenario.node[280].veinsmobility 	maxSpeed 	18.99998691739
scalar RSUExampleScenario.node[280].veinsmobility 	totalDistance 	3409.7420190988
scalar RSUExampleScenario.node[280].veinsmobility 	totalCO2Emission 	705.85733878292
scalar RSUExampleScenario.node[281].veinsmobility 	startTime 	1686.1
scalar RSUExampleScenario.node[281].veinsmobility 	totalTime 	226.7
scalar RSUExampleScenario.node[281].veinsmobility 	stopTime 	1912.9
scalar RSUExampleScenario.node[281].veinsmobility 	minSpeed 	0.25271500102081
scalar RSUExampleScenario.node[281].veinsmobility 	maxSpeed 	18.999469526254
scalar RSUExampleScenario.node[281].veinsmobility 	totalDistance 	3409.2808179813
scalar RSUExampleScenario.node[281].veinsmobility 	totalCO2Emission 	710.28298049287
scalar RSUExampleScenario.node[282].veinsmobility 	startTime 	1692.1
scalar RSUExampleScenario.node[282].veinsmobility 	totalTime 	227.1
scalar RSUExampleScenario.node[282].veinsmobility 	stopTime 	1919.3
scalar RSUExampleScenario.node[282].veinsmobility 	minSpeed 	0.24821662125271
scalar RSUExampleScenario.node[282].veinsmobility 	maxSpeed 	18.999734354857
scalar RSUExampleScenario.node[282].veinsmobility 	totalDistance 	3409.3411173157
scalar RSUExampleScenario.node[282].veinsmobility 	totalCO2Emission 	709.32567334461
scalar RSUExampleScenario.node[283].veinsmobility 	startTime 	1698.1
scalar RSUExampleScenario.node[283].veinsmobility 	totalTime 	227
scalar RSUExampleScenario.node[283].veinsmobility 	stopTime 	1925.2
scalar RSUExampleScenario.node[283].veinsmobility 	minSpeed 	0.25617126277066
scalar RSUExampleScenario.node[283].veinsmobility 	maxSpeed 	18.99990473924
scalar RSUExampleScenario.node[283].veinsmobility 	totalDistance 	3409.540349151
scalar RSUExampleScenario.node[283].veinsmobility 	totalCO2Emission 	706.49989436541
scalar RSUExampleScenario.node[284].veinsmobility 	startTime 	1704.1
scalar RSUExampleScenario.node[284].veinsmobility 	totalTime 	227.2
scalar RSUExampleScenario.node[284].veinsmobility 	stopTime 	1931.4
scalar RSUExampleScenario.node[284].veinsmobility 	minSpeed 	0.2475400241816
scalar RSUExampleScenario.node[284].veinsmobility 	maxSpeed 	18.999890919272
scalar RSUExampleScenario.node[284].veinsmobility 	totalDistance 	3410.0922898675
scalar RSUExampleScenario.node[284].veinsmobility 	totalCO2Emission 	710.86792194486
scalar RSUExampleScenario.node[285].veinsmobility 	startTime 	1710.1
scalar RSUExampleScenario.node[285].veinsmobility 	totalTime 	227
scalar RSUExampleScenario.node[285].veinsmobility 	stopTime 	1937.2
scalar RSUExampleScenario.node[285].veinsmobility 	minSpeed 	0.25816519757104
scalar RSUExampleScenario.node[285].veinsmobility 	maxSpeed 	18.999703445646
scalar RSUExampleScenario.node[285].veinsmobility 	totalDistance 	3409.6564697015
scalar RSUExampleScenario.node[285].veinsmobility 	totalCO2Emission 	708.88308397595
scalar RSUExampleScenario.node[286].veinsmobility 	startTime 	1716.1
scalar RSUExampleScenario.node[286].veinsmobility 	totalTime 	226.8
scalar RSUExampleScenario.node[286].veinsmobility 	stopTime 	1943
scalar RSUExampleScenario.node[286].veinsmobility 	minSpeed 	0.24778692649282
scalar RSUExampleScenario.node[286].veinsmobility 	maxSpeed 	18.999931346492
scalar RSUExampleScenario.node[286].veinsmobility 	totalDistance 	3409.6783446877
scalar RSUExampleScenario.node[286].veinsmobility 	totalCO2Emission 	708.46463227827
scalar RSUExampleScenario.node[287].veinsmobility 	startTime 	1722.1
scalar RSUExampleScenario.node[287].veinsmobility 	totalTime 	226.8
scalar RSUExampleScenario.node[287].veinsmobility 	stopTime 	1949
scalar RSUExampleScenario.node[287].veinsmobility 	minSpeed 	0.25508902415261
scalar RSUExampleScenario.node[287].veinsmobility 	maxSpeed 	18.999986165988
scalar RSUExampleScenario.node[287].veinsmobility 	totalDistance 	3409.6546738526
scalar RSUExampleScenario.node[287].veinsmobility 	totalCO2Emission 	709.35027904654
scalar RSUExampleScenario.node[288].veinsmobility 	startTime 	1728.1
scalar RSUExampleScenario.node[288].veinsmobility 	totalTime 	226.9
scalar RSUExampleScenario.node[288].veinsmobility 	stopTime 	1955.1
scalar RSUExampleScenario.node[288].veinsmobility 	minSpeed 	0.25286940711318
scalar RSUExampleScenario.node[288].veinsmobility 	maxSpeed 	18.999955620901
scalar RSUExampleScenario.node[288].veinsmobility 	totalDistance 	3409.5945657406
scalar RSUExampleScenario.node[288].veinsmobility 	totalCO2Emission 	704.48287051381
scalar RSUExampleScenario.node[289].veinsmobility 	startTime 	1734.1
scalar RSUExampleScenario.node[289].veinsmobility 	totalTime 	227
scalar RSUExampleScenario.node[289].veinsmobility 	stopTime 	1961.2
scalar RSUExampleScenario.node[289].veinsmobility 	minSpeed 	0.25130295210704
scalar RSUExampleScenario.node[289].veinsmobility 	maxSpeed 	18.999994488806
scalar RSUExampleScenario.node[289].veinsmobility 	totalDistance 	3409.5700453446
scalar RSUExampleScenario.node[289].veinsmobility 	totalCO2Emission 	705.58489711505
scalar RSUExampleScenario.node[290].veinsmobility 	startTime 	1740.1
scalar RSUExampleScenario.node[290].veinsmobility 	totalTime 	226.9
scalar RSUExampleScenario.node[290].veinsmobility 	stopTime 	1967.1
scalar RSUExampleScenario.node[290].veinsmobility 	minSpeed 	0.24944886760437
scalar RSUExampleScenario.node[290].veinsmobility 	maxSpeed 	18.999838654546
scalar RSUExampleScenario.node[290].veinsmobility 	totalDistance 	3409.5550279659
scalar RSUExampleScenario.node[290].veinsmobility 	totalCO2Emission 	707.98267950931
scalar RSUExampleScenario.node[291].veinsmobility 	startTime 	1746.1
scalar RSUExampleScenario.node[291].veinsmobility 	totalTime 	226.9
scalar RSUExampleScenario.node[291].veinsmobility 	stopTime 	1973.1
scalar RSUExampleScenario.node[291].veinsmobility 	minSpeed 	0.25374074346665
scalar RSUExampleScenario.node[291].veinsmobility 	maxSpeed 	18.998734283606
scalar RSUExampleScenario.node[291].veinsmobility 	totalDistance 	3409.6962306892
scalar RSUExampleScenario.node[291].veinsmobility 	totalCO2Emission 	706.22848273717
scalar RSUExampleScenario.node[292].veinsmobility 	startTime 	1752.1
scalar RSUExampleScenario.node[292].veinsmobility 	totalTime 	226.8
scalar RSUExampleScenario.node[292].veinsmobility 	stopTime 	1979
scalar RSUExampleScenario.node[292].veinsmobility 	minSpeed 	0.25925817928021
scalar RSUExampleScenario.node[292].veinsmobility 	maxSpeed 	18.999995630423
scalar RSUExampleScenario.node[292].veinsmobility 	totalDistance 	3409.4615045968
scalar RSUExampleScenario.node[292].veinsmobility 	totalCO2Emission 	706.06532849985
scalar RSUExampleScenario.node[293].veinsmobility 	startTime 	1758.1
scalar RSUExampleScenario.node[293].veinsmobility 	totalTime 	227
scalar RSUExampleScenario.node[293].veinsmobility 	stopTime 	1985.2
scalar RSUExampleScenario.node[293].veinsmobility 	minSpeed 	0.25629798436677
scalar RSUExampleScenario.node[293].veinsmobility 	maxSpeed 	18.999816688858
scalar RSUExampleScenario.node[293].veinsmobility 	totalDistance 	3409.4175046132
scalar RSUExampleScenario.node[293].veinsmobility 	totalCO2Emission 	706.56137531234
scalar RSUExampleScenario.node[294].veinsmobility 	startTime 	1764.1
scalar RSUExampleScenario.node[294].veinsmobility 	totalTime 	226.6
scalar RSUExampleScenario.node[294].veinsmobility 	stopTime 	1990.8
scalar RSUExampleScenario.node[294].veinsmobility 	minSpeed 	0.24896864121757
scalar RSUExampleScenario.node[294].veinsmobility 	maxSpeed 	18.999989557848
scalar RSUExampleScenario.node[294].veinsmobility 	totalDistance 	3409.3862518933
scalar RSUExampleScenario.node[294].veinsmobility 	totalCO2Emission 	705.14484838255
scalar RSUExampleScenario.node[295].veinsmobility 	startTime 	1770.1
scalar RSUExampleScenario.node[295].veinsmobility 	totalTime 	226.9
scalar RSUExampleScenario.node[295].veinsmobility 	stopTime 	1997.1
scalar RSUExampleScenario.node[295].veinsmobility 	minSpeed 	0.25563564873114
scalar RSUExampleScenario.node[295].veinsmobility 	maxSpeed 	18.999944608954
scalar RSUExampleScenario.node[295].veinsmobility 	totalDistance 	3409.2226326021
scalar RSUExampleScenario.node[295].veinsmobility 	totalCO2Emission 	709.85884748296
scalar RSUExampleScenario.node[296].veinsmobility 	startTime 	1776.1
scalar RSUExampleScenario.node[296].veinsmobility 	totalTime 	223.8
scalar RSUExampleScenario.node[296].veinsmobility 	stopTime 	2000
scalar RSUExampleScenario.node[296].veinsmobility 	minSpeed 	0.25145070358342
scalar RSUExampleScenario.node[296].veinsmobility 	maxSpeed 	18.999868467511
scalar RSUExampleScenario.node[296].veinsmobility 	totalDistance 	3390.0365557829
scalar RSUExampleScenario.node[296].veinsmobility 	totalCO2Emission 	688.04207620959
scalar RSUExampleScenario.node[297].veinsmobility 	startTime 	1782.1
scalar RSUExampleScenario.node[297].veinsmobility 	totalTime 	217.8
scalar RSUExampleScenario.node[297].veinsmobility 	stopTime 	2000
scalar RSUExampleScenario.node[297].veinsmobility 	minSpeed 	0.24963567969273
scalar RSUExampleScenario.node[297].veinsmobility 	maxSpeed 	18.99871137843
scalar RSUExampleScenario.node[297].veinsmobility 	totalDistance 	3327.0731421219
scalar RSUExampleScenario.node[297].veinsmobility 	totalCO2Emission 	683.21781600367
scalar RSUExampleScenario.node[298].veinsmobility 	startTime 	1788.1
scalar RSUExampleScenario.node[298].veinsmobility 	totalTime 	211.8
scalar RSUExampleScenario.node[298].veinsmobility 	stopTime 	2000
scalar RSUExampleScenario.node[298].veinsmobility 	minSpeed 	0.25310024380824
scalar RSUExampleScenario.node[298].veinsmobility 	maxSpeed 	18.999996920687
scalar RSUExampleScenario.node[298].veinsmobility 	totalDistance 	3244.2649135923
scalar RSUExampleScenario.node[298].veinsmobility 	totalCO2Emission 	667.39290756183
scalar RSUExampleScenario.node[299].veinsmobility 	startTime 	1794.1
scalar RSUExampleScenario.node[299].veinsmobility 	totalTime 	205.8
scalar RSUExampleScenario.node[299].veinsmobility 	stopTime 	2000
scalar RSUExampleScenario.node[299].veinsmobility 	minSpeed 	0.25978109660582
scalar RSUExampleScenario.node[299].veinsmobility 	maxSpeed 	18.999546305353
scalar RSUExampleScenario.node[299].veinsmobility 	totalDistance 	3154.5218446872
scalar RSUExampleScenario.node[299].veinsmobility 	totalCO2Emission 	654.35818404988
