version 2
run statistic-1458-20150306-07:46:58-13772
attr c 5
attr configname statistic
attr datetime 20150306-07:46:58
attr experiment statistic
attr inifile omnetpp.ini
attr iterationvars "$p=1/4, $c=5"
attr iterationvars2 "$p=1/4, $c=5, $repetition=58"
attr measurement "$p=1/4, $c=5"
attr network RSUExampleScenario
attr p 1/4
attr processid 13772
attr repetition 58
attr replication #58
attr resultdir results
attr runnumber 1458
attr seedset 1458

scalar . 	c 	5
scalar RSUExampleScenario.rsu[0].appl 	NumberofCH 	26
scalar RSUExampleScenario.rsu[0].appl 	NumberofON 	73
scalar RSUExampleScenario.rsu[0].appl 	NumberofFN 	1
scalar RSUExampleScenario.rsu[0].appl 	meanClusterNodes 	2.8076923076923
scalar RSUExampleScenario.rsu[0].appl 	varClusterNodes 	1.8609185236005
scalar RSUExampleScenario.rsu[0].appl 	GSScycles 	5
