version 2
run statisticRVV-90-20150327-04:49:28-12304
attr c 4
attr configname statisticRVV
attr datetime 20150327-04:49:28
attr experiment statisticRVV
attr inifile omnetpp.ini
attr iterationvars "$sc=\"erlangen-low.launchd.xml\", $p=1/5, $c=4"
attr iterationvars2 "$sc=\"erlangen-low.launchd.xml\", $p=1/5, $c=4, $repetition=0"
attr measurement "$sc=\"erlangen-low.launchd.xml\", $p=1/5, $c=4"
attr network RSUExampleScenario
attr p 1/5
attr processid 12304
attr repetition 0
attr replication #0
attr resultdir results
attr runnumber 90
attr sc "\"erlangen-low.launchd.xml\""
attr seedset 90

scalar . 	c 	4
scalar RSUExampleScenario.node[0].veinsmobility 	startTime 	0.1
scalar RSUExampleScenario.node[0].veinsmobility 	totalTime 	226.9
scalar RSUExampleScenario.node[0].veinsmobility 	stopTime 	227.1
scalar RSUExampleScenario.node[0].veinsmobility 	minSpeed 	0.25801029541367
scalar RSUExampleScenario.node[0].veinsmobility 	maxSpeed 	18.99957286342
scalar RSUExampleScenario.node[0].veinsmobility 	totalDistance 	3409.4351139514
scalar RSUExampleScenario.node[0].veinsmobility 	totalCO2Emission 	713.55816198046
scalar RSUExampleScenario.node[1].veinsmobility 	startTime 	6.1
scalar RSUExampleScenario.node[1].veinsmobility 	totalTime 	227
scalar RSUExampleScenario.node[1].veinsmobility 	stopTime 	233.2
scalar RSUExampleScenario.node[1].veinsmobility 	minSpeed 	0.25821260301163
scalar RSUExampleScenario.node[1].veinsmobility 	maxSpeed 	18.999962274439
scalar RSUExampleScenario.node[1].veinsmobility 	totalDistance 	3409.0663092687
scalar RSUExampleScenario.node[1].veinsmobility 	totalCO2Emission 	706.12216790454
scalar RSUExampleScenario.node[2].veinsmobility 	startTime 	12.1
scalar RSUExampleScenario.node[2].veinsmobility 	totalTime 	226.6
scalar RSUExampleScenario.node[2].veinsmobility 	stopTime 	238.8
scalar RSUExampleScenario.node[2].veinsmobility 	minSpeed 	0.25620941771008
scalar RSUExampleScenario.node[2].veinsmobility 	maxSpeed 	18.999815172008
scalar RSUExampleScenario.node[2].veinsmobility 	totalDistance 	3409.7636051788
scalar RSUExampleScenario.node[2].veinsmobility 	totalCO2Emission 	704.04639857083
scalar RSUExampleScenario.node[3].veinsmobility 	startTime 	18.1
scalar RSUExampleScenario.node[3].veinsmobility 	totalTime 	226.9
scalar RSUExampleScenario.node[3].veinsmobility 	stopTime 	245.1
scalar RSUExampleScenario.node[3].veinsmobility 	minSpeed 	0.25679806567915
scalar RSUExampleScenario.node[3].veinsmobility 	maxSpeed 	18.999876594828
scalar RSUExampleScenario.node[3].veinsmobility 	totalDistance 	3409.4578742926
scalar RSUExampleScenario.node[3].veinsmobility 	totalCO2Emission 	709.97409445317
scalar RSUExampleScenario.node[4].veinsmobility 	startTime 	24.1
scalar RSUExampleScenario.node[4].veinsmobility 	totalTime 	227.1
scalar RSUExampleScenario.node[4].veinsmobility 	stopTime 	251.3
scalar RSUExampleScenario.node[4].veinsmobility 	minSpeed 	0.25487414982356
scalar RSUExampleScenario.node[4].veinsmobility 	maxSpeed 	18.999575106339
scalar RSUExampleScenario.node[4].veinsmobility 	totalDistance 	3409.4957727774
scalar RSUExampleScenario.node[4].veinsmobility 	totalCO2Emission 	705.46898526114
scalar RSUExampleScenario.node[5].veinsmobility 	startTime 	30.1
scalar RSUExampleScenario.node[5].veinsmobility 	totalTime 	226.8
scalar RSUExampleScenario.node[5].veinsmobility 	stopTime 	257
scalar RSUExampleScenario.node[5].veinsmobility 	minSpeed 	0.25689319379604
scalar RSUExampleScenario.node[5].veinsmobility 	maxSpeed 	18.999794973335
scalar RSUExampleScenario.node[5].veinsmobility 	totalDistance 	3409.6510068268
scalar RSUExampleScenario.node[5].veinsmobility 	totalCO2Emission 	705.43538496362
scalar RSUExampleScenario.node[6].veinsmobility 	startTime 	36.1
scalar RSUExampleScenario.node[6].veinsmobility 	totalTime 	226.8
scalar RSUExampleScenario.node[6].veinsmobility 	stopTime 	263
scalar RSUExampleScenario.node[6].veinsmobility 	minSpeed 	0.2486322641829
scalar RSUExampleScenario.node[6].veinsmobility 	maxSpeed 	18.999882281607
scalar RSUExampleScenario.node[6].veinsmobility 	totalDistance 	3409.6518312217
scalar RSUExampleScenario.node[6].veinsmobility 	totalCO2Emission 	704.14016754564
scalar RSUExampleScenario.node[7].veinsmobility 	startTime 	42.1
scalar RSUExampleScenario.node[7].veinsmobility 	totalTime 	227.1
scalar RSUExampleScenario.node[7].veinsmobility 	stopTime 	269.3
scalar RSUExampleScenario.node[7].veinsmobility 	minSpeed 	0.24829859241587
scalar RSUExampleScenario.node[7].veinsmobility 	maxSpeed 	18.999548035138
scalar RSUExampleScenario.node[7].veinsmobility 	totalDistance 	3409.4024573171
scalar RSUExampleScenario.node[7].veinsmobility 	totalCO2Emission 	706.02872031218
scalar RSUExampleScenario.node[8].veinsmobility 	startTime 	48.1
scalar RSUExampleScenario.node[8].veinsmobility 	totalTime 	227
scalar RSUExampleScenario.node[8].veinsmobility 	stopTime 	275.2
scalar RSUExampleScenario.node[8].veinsmobility 	minSpeed 	0.25414545753901
scalar RSUExampleScenario.node[8].veinsmobility 	maxSpeed 	18.999630625811
scalar RSUExampleScenario.node[8].veinsmobility 	totalDistance 	3409.8922842842
scalar RSUExampleScenario.node[8].veinsmobility 	totalCO2Emission 	704.6067615852
scalar RSUExampleScenario.node[9].veinsmobility 	startTime 	54.1
scalar RSUExampleScenario.node[9].veinsmobility 	totalTime 	226.8
scalar RSUExampleScenario.node[9].veinsmobility 	stopTime 	281
scalar RSUExampleScenario.node[9].veinsmobility 	minSpeed 	0.25902830335754
scalar RSUExampleScenario.node[9].veinsmobility 	maxSpeed 	18.999774984783
scalar RSUExampleScenario.node[9].veinsmobility 	totalDistance 	3409.5966405684
scalar RSUExampleScenario.node[9].veinsmobility 	totalCO2Emission 	708.94231937437
scalar RSUExampleScenario.node[10].veinsmobility 	startTime 	60.1
scalar RSUExampleScenario.node[10].veinsmobility 	totalTime 	226.8
scalar RSUExampleScenario.node[10].veinsmobility 	stopTime 	287
scalar RSUExampleScenario.node[10].veinsmobility 	minSpeed 	0.25928054567357
scalar RSUExampleScenario.node[10].veinsmobility 	maxSpeed 	18.999903356659
scalar RSUExampleScenario.node[10].veinsmobility 	totalDistance 	3409.213111756
scalar RSUExampleScenario.node[10].veinsmobility 	totalCO2Emission 	706.58394609007
scalar RSUExampleScenario.node[11].veinsmobility 	startTime 	66.1
scalar RSUExampleScenario.node[11].veinsmobility 	totalTime 	227
scalar RSUExampleScenario.node[11].veinsmobility 	stopTime 	293.2
scalar RSUExampleScenario.node[11].veinsmobility 	minSpeed 	0.24938082939642
scalar RSUExampleScenario.node[11].veinsmobility 	maxSpeed 	18.999869281992
scalar RSUExampleScenario.node[11].veinsmobility 	totalDistance 	3409.0745711773
scalar RSUExampleScenario.node[11].veinsmobility 	totalCO2Emission 	709.29311168739
scalar RSUExampleScenario.node[12].veinsmobility 	startTime 	72.1
scalar RSUExampleScenario.node[12].veinsmobility 	totalTime 	226.9
scalar RSUExampleScenario.node[12].veinsmobility 	stopTime 	299.1
scalar RSUExampleScenario.node[12].veinsmobility 	minSpeed 	0.25074076878908
scalar RSUExampleScenario.node[12].veinsmobility 	maxSpeed 	18.999490168111
scalar RSUExampleScenario.node[12].veinsmobility 	totalDistance 	3409.2921538351
scalar RSUExampleScenario.node[12].veinsmobility 	totalCO2Emission 	709.90155402087
scalar RSUExampleScenario.node[13].veinsmobility 	startTime 	78.1
scalar RSUExampleScenario.node[13].veinsmobility 	totalTime 	226.8
scalar RSUExampleScenario.node[13].veinsmobility 	stopTime 	305
scalar RSUExampleScenario.node[13].veinsmobility 	minSpeed 	0.25201916634873
scalar RSUExampleScenario.node[13].veinsmobility 	maxSpeed 	18.999707101292
scalar RSUExampleScenario.node[13].veinsmobility 	totalDistance 	3409.4881316562
scalar RSUExampleScenario.node[13].veinsmobility 	totalCO2Emission 	704.10820681667
scalar RSUExampleScenario.node[14].veinsmobility 	startTime 	84.1
scalar RSUExampleScenario.node[14].veinsmobility 	totalTime 	226.9
scalar RSUExampleScenario.node[14].veinsmobility 	stopTime 	311.1
scalar RSUExampleScenario.node[14].veinsmobility 	minSpeed 	0.25922752289777
scalar RSUExampleScenario.node[14].veinsmobility 	maxSpeed 	18.999909687964
scalar RSUExampleScenario.node[14].veinsmobility 	totalDistance 	3409.2793315365
scalar RSUExampleScenario.node[14].veinsmobility 	totalCO2Emission 	706.47250873663
scalar RSUExampleScenario.node[15].veinsmobility 	startTime 	90.1
scalar RSUExampleScenario.node[15].veinsmobility 	totalTime 	227.3
scalar RSUExampleScenario.node[15].veinsmobility 	stopTime 	317.5
scalar RSUExampleScenario.node[15].veinsmobility 	minSpeed 	0.25806667511468
scalar RSUExampleScenario.node[15].veinsmobility 	maxSpeed 	18.99986145115
scalar RSUExampleScenario.node[15].veinsmobility 	totalDistance 	3409.229093397
scalar RSUExampleScenario.node[15].veinsmobility 	totalCO2Emission 	704.9116719643
scalar RSUExampleScenario.node[16].veinsmobility 	startTime 	96.1
scalar RSUExampleScenario.node[16].veinsmobility 	totalTime 	227.1
scalar RSUExampleScenario.node[16].veinsmobility 	stopTime 	323.3
scalar RSUExampleScenario.node[16].veinsmobility 	minSpeed 	0.25966878959816
scalar RSUExampleScenario.node[16].veinsmobility 	maxSpeed 	18.999386668194
scalar RSUExampleScenario.node[16].veinsmobility 	totalDistance 	3409.294470877
scalar RSUExampleScenario.node[16].veinsmobility 	totalCO2Emission 	701.72443078131
scalar RSUExampleScenario.node[17].veinsmobility 	startTime 	102.1
scalar RSUExampleScenario.node[17].veinsmobility 	totalTime 	226.7
scalar RSUExampleScenario.node[17].veinsmobility 	stopTime 	328.9
scalar RSUExampleScenario.node[17].veinsmobility 	minSpeed 	0.2504760211315
scalar RSUExampleScenario.node[17].veinsmobility 	maxSpeed 	18.999980624192
scalar RSUExampleScenario.node[17].veinsmobility 	totalDistance 	3409.2930989278
scalar RSUExampleScenario.node[17].veinsmobility 	totalCO2Emission 	703.91270030143
scalar RSUExampleScenario.node[18].veinsmobility 	startTime 	108.1
scalar RSUExampleScenario.node[18].veinsmobility 	totalTime 	226.9
scalar RSUExampleScenario.node[18].veinsmobility 	stopTime 	335.1
scalar RSUExampleScenario.node[18].veinsmobility 	minSpeed 	0.2582756613493
scalar RSUExampleScenario.node[18].veinsmobility 	maxSpeed 	18.999987466452
scalar RSUExampleScenario.node[18].veinsmobility 	totalDistance 	3409.2024385229
scalar RSUExampleScenario.node[18].veinsmobility 	totalCO2Emission 	703.8665518781
scalar RSUExampleScenario.node[19].veinsmobility 	startTime 	114.1
scalar RSUExampleScenario.node[19].veinsmobility 	totalTime 	227.2
scalar RSUExampleScenario.node[19].veinsmobility 	stopTime 	341.4
scalar RSUExampleScenario.node[19].veinsmobility 	minSpeed 	0.25819306102372
scalar RSUExampleScenario.node[19].veinsmobility 	maxSpeed 	18.999910829097
scalar RSUExampleScenario.node[19].veinsmobility 	totalDistance 	3409.3841851908
scalar RSUExampleScenario.node[19].veinsmobility 	totalCO2Emission 	712.44591185066
scalar RSUExampleScenario.node[20].veinsmobility 	startTime 	120.1
scalar RSUExampleScenario.node[20].veinsmobility 	totalTime 	227
scalar RSUExampleScenario.node[20].veinsmobility 	stopTime 	347.2
scalar RSUExampleScenario.node[20].veinsmobility 	minSpeed 	0.25791019811109
scalar RSUExampleScenario.node[20].veinsmobility 	maxSpeed 	18.999343953501
scalar RSUExampleScenario.node[20].veinsmobility 	totalDistance 	3409.6229266381
scalar RSUExampleScenario.node[20].veinsmobility 	totalCO2Emission 	707.71868570625
scalar RSUExampleScenario.node[21].veinsmobility 	startTime 	126.1
scalar RSUExampleScenario.node[21].veinsmobility 	totalTime 	227
scalar RSUExampleScenario.node[21].veinsmobility 	stopTime 	353.2
scalar RSUExampleScenario.node[21].veinsmobility 	minSpeed 	0.25055645096418
scalar RSUExampleScenario.node[21].veinsmobility 	maxSpeed 	18.999935487637
scalar RSUExampleScenario.node[21].veinsmobility 	totalDistance 	3409.2373544315
scalar RSUExampleScenario.node[21].veinsmobility 	totalCO2Emission 	709.95310890759
scalar RSUExampleScenario.node[22].veinsmobility 	startTime 	132.1
scalar RSUExampleScenario.node[22].veinsmobility 	totalTime 	226.9
scalar RSUExampleScenario.node[22].veinsmobility 	stopTime 	359.1
scalar RSUExampleScenario.node[22].veinsmobility 	minSpeed 	0.25245251342817
scalar RSUExampleScenario.node[22].veinsmobility 	maxSpeed 	18.999931765462
scalar RSUExampleScenario.node[22].veinsmobility 	totalDistance 	3409.0552278347
scalar RSUExampleScenario.node[22].veinsmobility 	totalCO2Emission 	709.29666471017
scalar RSUExampleScenario.node[23].veinsmobility 	startTime 	138.1
scalar RSUExampleScenario.node[23].veinsmobility 	totalTime 	226.9
scalar RSUExampleScenario.node[23].veinsmobility 	stopTime 	365.1
scalar RSUExampleScenario.node[23].veinsmobility 	minSpeed 	0.25077573130676
scalar RSUExampleScenario.node[23].veinsmobility 	maxSpeed 	18.999940509156
scalar RSUExampleScenario.node[23].veinsmobility 	totalDistance 	3409.1042990285
scalar RSUExampleScenario.node[23].veinsmobility 	totalCO2Emission 	703.8454697056
scalar RSUExampleScenario.node[24].veinsmobility 	startTime 	144.1
scalar RSUExampleScenario.node[24].veinsmobility 	totalTime 	227
scalar RSUExampleScenario.node[24].veinsmobility 	stopTime 	371.2
scalar RSUExampleScenario.node[24].veinsmobility 	minSpeed 	0.25455414280109
scalar RSUExampleScenario.node[24].veinsmobility 	maxSpeed 	18.999913073832
scalar RSUExampleScenario.node[24].veinsmobility 	totalDistance 	3409.3542600051
scalar RSUExampleScenario.node[24].veinsmobility 	totalCO2Emission 	706.22185394163
scalar RSUExampleScenario.node[25].veinsmobility 	startTime 	150.1
scalar RSUExampleScenario.node[25].veinsmobility 	totalTime 	227.1
scalar RSUExampleScenario.node[25].veinsmobility 	stopTime 	377.3
scalar RSUExampleScenario.node[25].veinsmobility 	minSpeed 	0.24725416136673
scalar RSUExampleScenario.node[25].veinsmobility 	maxSpeed 	18.999940482459
scalar RSUExampleScenario.node[25].veinsmobility 	totalDistance 	3409.3385024183
scalar RSUExampleScenario.node[25].veinsmobility 	totalCO2Emission 	706.99920615741
scalar RSUExampleScenario.node[26].veinsmobility 	startTime 	156.1
scalar RSUExampleScenario.node[26].veinsmobility 	totalTime 	226.8
scalar RSUExampleScenario.node[26].veinsmobility 	stopTime 	383
scalar RSUExampleScenario.node[26].veinsmobility 	minSpeed 	0.25072762141516
scalar RSUExampleScenario.node[26].veinsmobility 	maxSpeed 	18.999907731412
scalar RSUExampleScenario.node[26].veinsmobility 	totalDistance 	3409.6795674424
scalar RSUExampleScenario.node[26].veinsmobility 	totalCO2Emission 	704.69834512774
scalar RSUExampleScenario.node[27].veinsmobility 	startTime 	162.1
scalar RSUExampleScenario.node[27].veinsmobility 	totalTime 	227.1
scalar RSUExampleScenario.node[27].veinsmobility 	stopTime 	389.3
scalar RSUExampleScenario.node[27].veinsmobility 	minSpeed 	0.24805634176405
scalar RSUExampleScenario.node[27].veinsmobility 	maxSpeed 	18.999829468667
scalar RSUExampleScenario.node[27].veinsmobility 	totalDistance 	3409.1922332337
scalar RSUExampleScenario.node[27].veinsmobility 	totalCO2Emission 	703.99517502006
scalar RSUExampleScenario.node[28].veinsmobility 	startTime 	168.1
scalar RSUExampleScenario.node[28].veinsmobility 	totalTime 	227
scalar RSUExampleScenario.node[28].veinsmobility 	stopTime 	395.2
scalar RSUExampleScenario.node[28].veinsmobility 	minSpeed 	0.25882621410373
scalar RSUExampleScenario.node[28].veinsmobility 	maxSpeed 	18.999635419988
scalar RSUExampleScenario.node[28].veinsmobility 	totalDistance 	3409.4584070903
scalar RSUExampleScenario.node[28].veinsmobility 	totalCO2Emission 	702.19963923666
scalar RSUExampleScenario.node[29].veinsmobility 	startTime 	174.1
scalar RSUExampleScenario.node[29].veinsmobility 	totalTime 	226.7
scalar RSUExampleScenario.node[29].veinsmobility 	stopTime 	400.9
scalar RSUExampleScenario.node[29].veinsmobility 	minSpeed 	0.25679743842664
scalar RSUExampleScenario.node[29].veinsmobility 	maxSpeed 	18.99991618199
scalar RSUExampleScenario.node[29].veinsmobility 	totalDistance 	3409.5072298769
scalar RSUExampleScenario.node[29].veinsmobility 	totalCO2Emission 	708.51060756137
scalar RSUExampleScenario.node[30].veinsmobility 	startTime 	180.1
scalar RSUExampleScenario.node[30].veinsmobility 	totalTime 	226.8
scalar RSUExampleScenario.node[30].veinsmobility 	stopTime 	407
scalar RSUExampleScenario.node[30].veinsmobility 	minSpeed 	0.25770549709653
scalar RSUExampleScenario.node[30].veinsmobility 	maxSpeed 	18.999960766276
scalar RSUExampleScenario.node[30].veinsmobility 	totalDistance 	3409.1251509244
scalar RSUExampleScenario.node[30].veinsmobility 	totalCO2Emission 	710.74314480505
scalar RSUExampleScenario.node[31].veinsmobility 	startTime 	186.1
scalar RSUExampleScenario.node[31].veinsmobility 	totalTime 	226.9
scalar RSUExampleScenario.node[31].veinsmobility 	stopTime 	413.1
scalar RSUExampleScenario.node[31].veinsmobility 	minSpeed 	0.2507988255634
scalar RSUExampleScenario.node[31].veinsmobility 	maxSpeed 	18.999971496004
scalar RSUExampleScenario.node[31].veinsmobility 	totalDistance 	3409.3462215417
scalar RSUExampleScenario.node[31].veinsmobility 	totalCO2Emission 	704.50621159471
scalar RSUExampleScenario.node[32].veinsmobility 	startTime 	192.1
scalar RSUExampleScenario.node[32].veinsmobility 	totalTime 	227.1
scalar RSUExampleScenario.node[32].veinsmobility 	stopTime 	419.3
scalar RSUExampleScenario.node[32].veinsmobility 	minSpeed 	0.25595598429744
scalar RSUExampleScenario.node[32].veinsmobility 	maxSpeed 	18.999713815851
scalar RSUExampleScenario.node[32].veinsmobility 	totalDistance 	3409.3130995843
scalar RSUExampleScenario.node[32].veinsmobility 	totalCO2Emission 	709.96904166718
scalar RSUExampleScenario.node[33].veinsmobility 	startTime 	198.1
scalar RSUExampleScenario.node[33].veinsmobility 	totalTime 	226.9
scalar RSUExampleScenario.node[33].veinsmobility 	stopTime 	425.1
scalar RSUExampleScenario.node[33].veinsmobility 	minSpeed 	0.25628583150497
scalar RSUExampleScenario.node[33].veinsmobility 	maxSpeed 	18.9997431165
scalar RSUExampleScenario.node[33].veinsmobility 	totalDistance 	3409.8484513345
scalar RSUExampleScenario.node[33].veinsmobility 	totalCO2Emission 	704.95564631462
scalar RSUExampleScenario.node[34].veinsmobility 	startTime 	204.1
scalar RSUExampleScenario.node[34].veinsmobility 	totalTime 	227
scalar RSUExampleScenario.node[34].veinsmobility 	stopTime 	431.2
scalar RSUExampleScenario.node[34].veinsmobility 	minSpeed 	0.25152979688183
scalar RSUExampleScenario.node[34].veinsmobility 	maxSpeed 	18.999676102912
scalar RSUExampleScenario.node[34].veinsmobility 	totalDistance 	3409.2992206929
scalar RSUExampleScenario.node[34].veinsmobility 	totalCO2Emission 	707.19840887504
scalar RSUExampleScenario.node[35].veinsmobility 	startTime 	210.1
scalar RSUExampleScenario.node[35].veinsmobility 	totalTime 	226.8
scalar RSUExampleScenario.node[35].veinsmobility 	stopTime 	437
scalar RSUExampleScenario.node[35].veinsmobility 	minSpeed 	0.24952145199082
scalar RSUExampleScenario.node[35].veinsmobility 	maxSpeed 	18.999974972282
scalar RSUExampleScenario.node[35].veinsmobility 	totalDistance 	3409.808288895
scalar RSUExampleScenario.node[35].veinsmobility 	totalCO2Emission 	707.57083389732
scalar RSUExampleScenario.node[36].veinsmobility 	startTime 	216.1
scalar RSUExampleScenario.node[36].veinsmobility 	totalTime 	226.6
scalar RSUExampleScenario.node[36].veinsmobility 	stopTime 	442.8
scalar RSUExampleScenario.node[36].veinsmobility 	minSpeed 	0.24928435406066
scalar RSUExampleScenario.node[36].veinsmobility 	maxSpeed 	18.999986121403
scalar RSUExampleScenario.node[36].veinsmobility 	totalDistance 	3409.3204921077
scalar RSUExampleScenario.node[36].veinsmobility 	totalCO2Emission 	706.99221582684
scalar RSUExampleScenario.node[37].veinsmobility 	startTime 	222.1
scalar RSUExampleScenario.node[37].veinsmobility 	totalTime 	227.3
scalar RSUExampleScenario.node[37].veinsmobility 	stopTime 	449.5
scalar RSUExampleScenario.node[37].veinsmobility 	minSpeed 	0.25042363402876
scalar RSUExampleScenario.node[37].veinsmobility 	maxSpeed 	18.999114703671
scalar RSUExampleScenario.node[37].veinsmobility 	totalDistance 	3409.3523924148
scalar RSUExampleScenario.node[37].veinsmobility 	totalCO2Emission 	707.69797958173
scalar RSUExampleScenario.node[38].veinsmobility 	startTime 	228.1
scalar RSUExampleScenario.node[38].veinsmobility 	totalTime 	226.8
scalar RSUExampleScenario.node[38].veinsmobility 	stopTime 	455
scalar RSUExampleScenario.node[38].veinsmobility 	minSpeed 	0.2514110002974
scalar RSUExampleScenario.node[38].veinsmobility 	maxSpeed 	18.99997078961
scalar RSUExampleScenario.node[38].veinsmobility 	totalDistance 	3409.1689758653
scalar RSUExampleScenario.node[38].veinsmobility 	totalCO2Emission 	703.4579461148
scalar RSUExampleScenario.node[39].veinsmobility 	startTime 	234.1
scalar RSUExampleScenario.node[39].veinsmobility 	totalTime 	226.9
scalar RSUExampleScenario.node[39].veinsmobility 	stopTime 	461.1
scalar RSUExampleScenario.node[39].veinsmobility 	minSpeed 	0.2471835181599
scalar RSUExampleScenario.node[39].veinsmobility 	maxSpeed 	18.999789864856
scalar RSUExampleScenario.node[39].veinsmobility 	totalDistance 	3409.1469904925
scalar RSUExampleScenario.node[39].veinsmobility 	totalCO2Emission 	704.72358321716
scalar RSUExampleScenario.node[40].veinsmobility 	startTime 	240.1
scalar RSUExampleScenario.node[40].veinsmobility 	totalTime 	226.8
scalar RSUExampleScenario.node[40].veinsmobility 	stopTime 	467
scalar RSUExampleScenario.node[40].veinsmobility 	minSpeed 	0.24870448739966
scalar RSUExampleScenario.node[40].veinsmobility 	maxSpeed 	18.999855274151
scalar RSUExampleScenario.node[40].veinsmobility 	totalDistance 	3409.3767335184
scalar RSUExampleScenario.node[40].veinsmobility 	totalCO2Emission 	707.05451666391
scalar RSUExampleScenario.node[41].veinsmobility 	startTime 	246.1
scalar RSUExampleScenario.node[41].veinsmobility 	totalTime 	227.3
scalar RSUExampleScenario.node[41].veinsmobility 	stopTime 	473.5
scalar RSUExampleScenario.node[41].veinsmobility 	minSpeed 	0.25145333564491
scalar RSUExampleScenario.node[41].veinsmobility 	maxSpeed 	18.99996112138
scalar RSUExampleScenario.node[41].veinsmobility 	totalDistance 	3409.2533551252
scalar RSUExampleScenario.node[41].veinsmobility 	totalCO2Emission 	709.37957054765
scalar RSUExampleScenario.node[42].veinsmobility 	startTime 	252.1
scalar RSUExampleScenario.node[42].veinsmobility 	totalTime 	226.9
scalar RSUExampleScenario.node[42].veinsmobility 	stopTime 	479.1
scalar RSUExampleScenario.node[42].veinsmobility 	minSpeed 	0.25319125528261
scalar RSUExampleScenario.node[42].veinsmobility 	maxSpeed 	18.999769018872
scalar RSUExampleScenario.node[42].veinsmobility 	totalDistance 	3409.5566147763
scalar RSUExampleScenario.node[42].veinsmobility 	totalCO2Emission 	707.37218772012
scalar RSUExampleScenario.node[43].veinsmobility 	startTime 	258.1
scalar RSUExampleScenario.node[43].veinsmobility 	totalTime 	226.8
scalar RSUExampleScenario.node[43].veinsmobility 	stopTime 	485
scalar RSUExampleScenario.node[43].veinsmobility 	minSpeed 	0.25011738510337
scalar RSUExampleScenario.node[43].veinsmobility 	maxSpeed 	18.999938605602
scalar RSUExampleScenario.node[43].veinsmobility 	totalDistance 	3409.3349136803
scalar RSUExampleScenario.node[43].veinsmobility 	totalCO2Emission 	701.37905870399
scalar RSUExampleScenario.node[44].veinsmobility 	startTime 	264.1
scalar RSUExampleScenario.node[44].veinsmobility 	totalTime 	226.8
scalar RSUExampleScenario.node[44].veinsmobility 	stopTime 	491
scalar RSUExampleScenario.node[44].veinsmobility 	minSpeed 	0.2477068522363
scalar RSUExampleScenario.node[44].veinsmobility 	maxSpeed 	18.999252879135
scalar RSUExampleScenario.node[44].veinsmobility 	totalDistance 	3409.3528234639
scalar RSUExampleScenario.node[44].veinsmobility 	totalCO2Emission 	709.75504985097
scalar RSUExampleScenario.node[45].veinsmobility 	startTime 	270.1
scalar RSUExampleScenario.node[45].veinsmobility 	totalTime 	227.1
scalar RSUExampleScenario.node[45].veinsmobility 	stopTime 	497.3
scalar RSUExampleScenario.node[45].veinsmobility 	minSpeed 	0.25650838214881
scalar RSUExampleScenario.node[45].veinsmobility 	maxSpeed 	18.999926409724
scalar RSUExampleScenario.node[45].veinsmobility 	totalDistance 	3409.4173382116
scalar RSUExampleScenario.node[45].veinsmobility 	totalCO2Emission 	708.33937011174
scalar RSUExampleScenario.node[46].veinsmobility 	startTime 	276.1
scalar RSUExampleScenario.node[46].veinsmobility 	totalTime 	226.9
scalar RSUExampleScenario.node[46].veinsmobility 	stopTime 	503.1
scalar RSUExampleScenario.node[46].veinsmobility 	minSpeed 	0.25620659264177
scalar RSUExampleScenario.node[46].veinsmobility 	maxSpeed 	18.999646543078
scalar RSUExampleScenario.node[46].veinsmobility 	totalDistance 	3409.3711867793
scalar RSUExampleScenario.node[46].veinsmobility 	totalCO2Emission 	707.00716959139
scalar RSUExampleScenario.node[47].veinsmobility 	startTime 	282.1
scalar RSUExampleScenario.node[47].veinsmobility 	totalTime 	227
scalar RSUExampleScenario.node[47].veinsmobility 	stopTime 	509.2
scalar RSUExampleScenario.node[47].veinsmobility 	minSpeed 	0.24739849455864
scalar RSUExampleScenario.node[47].veinsmobility 	maxSpeed 	18.999655540024
scalar RSUExampleScenario.node[47].veinsmobility 	totalDistance 	3409.3999180692
scalar RSUExampleScenario.node[47].veinsmobility 	totalCO2Emission 	707.90900168066
scalar RSUExampleScenario.node[48].veinsmobility 	startTime 	288.1
scalar RSUExampleScenario.node[48].veinsmobility 	totalTime 	227.1
scalar RSUExampleScenario.node[48].veinsmobility 	stopTime 	515.3
scalar RSUExampleScenario.node[48].veinsmobility 	minSpeed 	0.24708565523382
scalar RSUExampleScenario.node[48].veinsmobility 	maxSpeed 	18.999907794248
scalar RSUExampleScenario.node[48].veinsmobility 	totalDistance 	3409.214914216
scalar RSUExampleScenario.node[48].veinsmobility 	totalCO2Emission 	707.0585424566
scalar RSUExampleScenario.node[49].veinsmobility 	startTime 	294.1
scalar RSUExampleScenario.node[49].veinsmobility 	totalTime 	227.3
scalar RSUExampleScenario.node[49].veinsmobility 	stopTime 	521.5
scalar RSUExampleScenario.node[49].veinsmobility 	minSpeed 	0.24774076450034
scalar RSUExampleScenario.node[49].veinsmobility 	maxSpeed 	18.999982637588
scalar RSUExampleScenario.node[49].veinsmobility 	totalDistance 	3409.6217452903
scalar RSUExampleScenario.node[49].veinsmobility 	totalCO2Emission 	708.17456242227
scalar RSUExampleScenario.node[50].veinsmobility 	startTime 	300.1
scalar RSUExampleScenario.node[50].veinsmobility 	totalTime 	226.5
scalar RSUExampleScenario.node[50].veinsmobility 	stopTime 	526.7
scalar RSUExampleScenario.node[50].veinsmobility 	minSpeed 	0.24801990308892
scalar RSUExampleScenario.node[50].veinsmobility 	maxSpeed 	18.999962707271
scalar RSUExampleScenario.node[50].veinsmobility 	totalDistance 	3409.4657618416
scalar RSUExampleScenario.node[50].veinsmobility 	totalCO2Emission 	708.0017347525
scalar RSUExampleScenario.node[51].veinsmobility 	startTime 	306.1
scalar RSUExampleScenario.node[51].veinsmobility 	totalTime 	226.8
scalar RSUExampleScenario.node[51].veinsmobility 	stopTime 	533
scalar RSUExampleScenario.node[51].veinsmobility 	minSpeed 	0.25604266509227
scalar RSUExampleScenario.node[51].veinsmobility 	maxSpeed 	18.999615341085
scalar RSUExampleScenario.node[51].veinsmobility 	totalDistance 	3409.6075558096
scalar RSUExampleScenario.node[51].veinsmobility 	totalCO2Emission 	707.05632441336
scalar RSUExampleScenario.node[52].veinsmobility 	startTime 	312.1
scalar RSUExampleScenario.node[52].veinsmobility 	totalTime 	227.1
scalar RSUExampleScenario.node[52].veinsmobility 	stopTime 	539.3
scalar RSUExampleScenario.node[52].veinsmobility 	minSpeed 	0.25905241114669
scalar RSUExampleScenario.node[52].veinsmobility 	maxSpeed 	18.999764542419
scalar RSUExampleScenario.node[52].veinsmobility 	totalDistance 	3409.9780151927
scalar RSUExampleScenario.node[52].veinsmobility 	totalCO2Emission 	708.23650865586
scalar RSUExampleScenario.node[53].veinsmobility 	startTime 	318.1
scalar RSUExampleScenario.node[53].veinsmobility 	totalTime 	227
scalar RSUExampleScenario.node[53].veinsmobility 	stopTime 	545.2
scalar RSUExampleScenario.node[53].veinsmobility 	minSpeed 	0.24986941660242
scalar RSUExampleScenario.node[53].veinsmobility 	maxSpeed 	18.999647942034
scalar RSUExampleScenario.node[53].veinsmobility 	totalDistance 	3409.1728846801
scalar RSUExampleScenario.node[53].veinsmobility 	totalCO2Emission 	708.38213247846
scalar RSUExampleScenario.node[54].veinsmobility 	startTime 	324.1
scalar RSUExampleScenario.node[54].veinsmobility 	totalTime 	227
scalar RSUExampleScenario.node[54].veinsmobility 	stopTime 	551.2
scalar RSUExampleScenario.node[54].veinsmobility 	minSpeed 	0.25579902441963
scalar RSUExampleScenario.node[54].veinsmobility 	maxSpeed 	18.999518732643
scalar RSUExampleScenario.node[54].veinsmobility 	totalDistance 	3409.2460544034
scalar RSUExampleScenario.node[54].veinsmobility 	totalCO2Emission 	708.9381738763
scalar RSUExampleScenario.node[55].veinsmobility 	startTime 	330.1
scalar RSUExampleScenario.node[55].veinsmobility 	totalTime 	226.8
scalar RSUExampleScenario.node[55].veinsmobility 	stopTime 	557
scalar RSUExampleScenario.node[55].veinsmobility 	minSpeed 	0.25361102810968
scalar RSUExampleScenario.node[55].veinsmobility 	maxSpeed 	18.999578487212
scalar RSUExampleScenario.node[55].veinsmobility 	totalDistance 	3409.5152059009
scalar RSUExampleScenario.node[55].veinsmobility 	totalCO2Emission 	706.65605718663
scalar RSUExampleScenario.node[56].veinsmobility 	startTime 	336.1
scalar RSUExampleScenario.node[56].veinsmobility 	totalTime 	227
scalar RSUExampleScenario.node[56].veinsmobility 	stopTime 	563.2
scalar RSUExampleScenario.node[56].veinsmobility 	minSpeed 	0.24863558887574
scalar RSUExampleScenario.node[56].veinsmobility 	maxSpeed 	18.999813526883
scalar RSUExampleScenario.node[56].veinsmobility 	totalDistance 	3409.3609841516
scalar RSUExampleScenario.node[56].veinsmobility 	totalCO2Emission 	706.64224663082
scalar RSUExampleScenario.node[57].veinsmobility 	startTime 	342.1
scalar RSUExampleScenario.node[57].veinsmobility 	totalTime 	226.9
scalar RSUExampleScenario.node[57].veinsmobility 	stopTime 	569.1
scalar RSUExampleScenario.node[57].veinsmobility 	minSpeed 	0.25787033241009
scalar RSUExampleScenario.node[57].veinsmobility 	maxSpeed 	18.99977748513
scalar RSUExampleScenario.node[57].veinsmobility 	totalDistance 	3409.5222716846
scalar RSUExampleScenario.node[57].veinsmobility 	totalCO2Emission 	705.38127338141
scalar RSUExampleScenario.node[58].veinsmobility 	startTime 	348.1
scalar RSUExampleScenario.node[58].veinsmobility 	totalTime 	226.9
scalar RSUExampleScenario.node[58].veinsmobility 	stopTime 	575.1
scalar RSUExampleScenario.node[58].veinsmobility 	minSpeed 	0.24715161530254
scalar RSUExampleScenario.node[58].veinsmobility 	maxSpeed 	18.999984809256
scalar RSUExampleScenario.node[58].veinsmobility 	totalDistance 	3409.5047475645
scalar RSUExampleScenario.node[58].veinsmobility 	totalCO2Emission 	703.32890807549
scalar RSUExampleScenario.node[59].veinsmobility 	startTime 	354.1
scalar RSUExampleScenario.node[59].veinsmobility 	totalTime 	226.9
scalar RSUExampleScenario.node[59].veinsmobility 	stopTime 	581.1
scalar RSUExampleScenario.node[59].veinsmobility 	minSpeed 	0.25481365637365
scalar RSUExampleScenario.node[59].veinsmobility 	maxSpeed 	18.999876703429
scalar RSUExampleScenario.node[59].veinsmobility 	totalDistance 	3409.5812810835
scalar RSUExampleScenario.node[59].veinsmobility 	totalCO2Emission 	707.29631999185
scalar RSUExampleScenario.node[60].veinsmobility 	startTime 	360.1
scalar RSUExampleScenario.node[60].veinsmobility 	totalTime 	226.8
scalar RSUExampleScenario.node[60].veinsmobility 	stopTime 	587
scalar RSUExampleScenario.node[60].veinsmobility 	minSpeed 	0.25715256404667
scalar RSUExampleScenario.node[60].veinsmobility 	maxSpeed 	18.999911458853
scalar RSUExampleScenario.node[60].veinsmobility 	totalDistance 	3409.3976813381
scalar RSUExampleScenario.node[60].veinsmobility 	totalCO2Emission 	702.14211521207
scalar RSUExampleScenario.node[61].veinsmobility 	startTime 	366.1
scalar RSUExampleScenario.node[61].veinsmobility 	totalTime 	227
scalar RSUExampleScenario.node[61].veinsmobility 	stopTime 	593.2
scalar RSUExampleScenario.node[61].veinsmobility 	minSpeed 	0.24998993074964
scalar RSUExampleScenario.node[61].veinsmobility 	maxSpeed 	18.999864093242
scalar RSUExampleScenario.node[61].veinsmobility 	totalDistance 	3409.9280959238
scalar RSUExampleScenario.node[61].veinsmobility 	totalCO2Emission 	708.4135505893
scalar RSUExampleScenario.node[62].veinsmobility 	startTime 	372.1
scalar RSUExampleScenario.node[62].veinsmobility 	totalTime 	227
scalar RSUExampleScenario.node[62].veinsmobility 	stopTime 	599.2
scalar RSUExampleScenario.node[62].veinsmobility 	minSpeed 	0.25524927548901
scalar RSUExampleScenario.node[62].veinsmobility 	maxSpeed 	18.999731489024
scalar RSUExampleScenario.node[62].veinsmobility 	totalDistance 	3409.2422383671
scalar RSUExampleScenario.node[62].veinsmobility 	totalCO2Emission 	704.6213036811
scalar RSUExampleScenario.node[63].veinsmobility 	startTime 	378.1
scalar RSUExampleScenario.node[63].veinsmobility 	totalTime 	227.1
scalar RSUExampleScenario.node[63].veinsmobility 	stopTime 	605.3
scalar RSUExampleScenario.node[63].veinsmobility 	minSpeed 	0.25626834267913
scalar RSUExampleScenario.node[63].veinsmobility 	maxSpeed 	18.999805539676
scalar RSUExampleScenario.node[63].veinsmobility 	totalDistance 	3409.7550088325
scalar RSUExampleScenario.node[63].veinsmobility 	totalCO2Emission 	709.2445855232
scalar RSUExampleScenario.node[64].veinsmobility 	startTime 	384.1
scalar RSUExampleScenario.node[64].veinsmobility 	totalTime 	226.9
scalar RSUExampleScenario.node[64].veinsmobility 	stopTime 	611.1
scalar RSUExampleScenario.node[64].veinsmobility 	minSpeed 	0.25529001671565
scalar RSUExampleScenario.node[64].veinsmobility 	maxSpeed 	18.999864393743
scalar RSUExampleScenario.node[64].veinsmobility 	totalDistance 	3409.1128068552
scalar RSUExampleScenario.node[64].veinsmobility 	totalCO2Emission 	710.53246177512
scalar RSUExampleScenario.node[65].veinsmobility 	startTime 	390.1
scalar RSUExampleScenario.node[65].veinsmobility 	totalTime 	227
scalar RSUExampleScenario.node[65].veinsmobility 	stopTime 	617.2
scalar RSUExampleScenario.node[65].veinsmobility 	minSpeed 	0.25156662374083
scalar RSUExampleScenario.node[65].veinsmobility 	maxSpeed 	18.999841642419
scalar RSUExampleScenario.node[65].veinsmobility 	totalDistance 	3409.176809427
scalar RSUExampleScenario.node[65].veinsmobility 	totalCO2Emission 	707.28244485277
scalar RSUExampleScenario.node[66].veinsmobility 	startTime 	396.1
scalar RSUExampleScenario.node[66].veinsmobility 	totalTime 	227
scalar RSUExampleScenario.node[66].veinsmobility 	stopTime 	623.2
scalar RSUExampleScenario.node[66].veinsmobility 	minSpeed 	0.2565348466516
scalar RSUExampleScenario.node[66].veinsmobility 	maxSpeed 	18.999526267252
scalar RSUExampleScenario.node[66].veinsmobility 	totalDistance 	3409.3191244616
scalar RSUExampleScenario.node[66].veinsmobility 	totalCO2Emission 	705.49446722478
scalar RSUExampleScenario.node[67].veinsmobility 	startTime 	402.1
scalar RSUExampleScenario.node[67].veinsmobility 	totalTime 	226.9
scalar RSUExampleScenario.node[67].veinsmobility 	stopTime 	629.1
scalar RSUExampleScenario.node[67].veinsmobility 	minSpeed 	0.25112925577769
scalar RSUExampleScenario.node[67].veinsmobility 	maxSpeed 	18.999540436482
scalar RSUExampleScenario.node[67].veinsmobility 	totalDistance 	3409.6648348056
scalar RSUExampleScenario.node[67].veinsmobility 	totalCO2Emission 	707.03685055197
scalar RSUExampleScenario.node[68].veinsmobility 	startTime 	408.1
scalar RSUExampleScenario.node[68].veinsmobility 	totalTime 	226.7
scalar RSUExampleScenario.node[68].veinsmobility 	stopTime 	634.9
scalar RSUExampleScenario.node[68].veinsmobility 	minSpeed 	0.25846087566647
scalar RSUExampleScenario.node[68].veinsmobility 	maxSpeed 	18.999579012664
scalar RSUExampleScenario.node[68].veinsmobility 	totalDistance 	3409.6649400945
scalar RSUExampleScenario.node[68].veinsmobility 	totalCO2Emission 	711.57253191677
scalar RSUExampleScenario.node[69].veinsmobility 	startTime 	414.1
scalar RSUExampleScenario.node[69].veinsmobility 	totalTime 	226.9
scalar RSUExampleScenario.node[69].veinsmobility 	stopTime 	641.1
scalar RSUExampleScenario.node[69].veinsmobility 	minSpeed 	0.24832444146159
scalar RSUExampleScenario.node[69].veinsmobility 	maxSpeed 	18.999609836065
scalar RSUExampleScenario.node[69].veinsmobility 	totalDistance 	3409.4956094632
scalar RSUExampleScenario.node[69].veinsmobility 	totalCO2Emission 	709.82383804207
scalar RSUExampleScenario.node[70].veinsmobility 	startTime 	420.1
scalar RSUExampleScenario.node[70].veinsmobility 	totalTime 	227
scalar RSUExampleScenario.node[70].veinsmobility 	stopTime 	647.2
scalar RSUExampleScenario.node[70].veinsmobility 	minSpeed 	0.25511602108739
scalar RSUExampleScenario.node[70].veinsmobility 	maxSpeed 	18.999737206222
scalar RSUExampleScenario.node[70].veinsmobility 	totalDistance 	3409.4518901139
scalar RSUExampleScenario.node[70].veinsmobility 	totalCO2Emission 	706.30625883089
scalar RSUExampleScenario.node[71].veinsmobility 	startTime 	426.1
scalar RSUExampleScenario.node[71].veinsmobility 	totalTime 	226.9
scalar RSUExampleScenario.node[71].veinsmobility 	stopTime 	653.1
scalar RSUExampleScenario.node[71].veinsmobility 	minSpeed 	0.24835845744493
scalar RSUExampleScenario.node[71].veinsmobility 	maxSpeed 	18.999930789683
scalar RSUExampleScenario.node[71].veinsmobility 	totalDistance 	3409.0430340989
scalar RSUExampleScenario.node[71].veinsmobility 	totalCO2Emission 	708.91859937588
scalar RSUExampleScenario.node[72].veinsmobility 	startTime 	432.1
scalar RSUExampleScenario.node[72].veinsmobility 	totalTime 	226.7
scalar RSUExampleScenario.node[72].veinsmobility 	stopTime 	658.9
scalar RSUExampleScenario.node[72].veinsmobility 	minSpeed 	0.25662735224143
scalar RSUExampleScenario.node[72].veinsmobility 	maxSpeed 	18.99953844497
scalar RSUExampleScenario.node[72].veinsmobility 	totalDistance 	3409.242673013
scalar RSUExampleScenario.node[72].veinsmobility 	totalCO2Emission 	702.07789522976
scalar RSUExampleScenario.node[73].veinsmobility 	startTime 	438.1
scalar RSUExampleScenario.node[73].veinsmobility 	totalTime 	226.6
scalar RSUExampleScenario.node[73].veinsmobility 	stopTime 	664.8
scalar RSUExampleScenario.node[73].veinsmobility 	minSpeed 	0.25704850676865
scalar RSUExampleScenario.node[73].veinsmobility 	maxSpeed 	18.999528706458
scalar RSUExampleScenario.node[73].veinsmobility 	totalDistance 	3409.3072410642
scalar RSUExampleScenario.node[73].veinsmobility 	totalCO2Emission 	708.89875376527
scalar RSUExampleScenario.node[74].veinsmobility 	startTime 	444.1
scalar RSUExampleScenario.node[74].veinsmobility 	totalTime 	227.2
scalar RSUExampleScenario.node[74].veinsmobility 	stopTime 	671.4
scalar RSUExampleScenario.node[74].veinsmobility 	minSpeed 	0.25998395150341
scalar RSUExampleScenario.node[74].veinsmobility 	maxSpeed 	18.999865201565
scalar RSUExampleScenario.node[74].veinsmobility 	totalDistance 	3409.2898679243
scalar RSUExampleScenario.node[74].veinsmobility 	totalCO2Emission 	710.59334847619
scalar RSUExampleScenario.node[75].veinsmobility 	startTime 	450.1
scalar RSUExampleScenario.node[75].veinsmobility 	totalTime 	227.1
scalar RSUExampleScenario.node[75].veinsmobility 	stopTime 	677.3
scalar RSUExampleScenario.node[75].veinsmobility 	minSpeed 	0.25201229204168
scalar RSUExampleScenario.node[75].veinsmobility 	maxSpeed 	18.999829532956
scalar RSUExampleScenario.node[75].veinsmobility 	totalDistance 	3409.4793177654
scalar RSUExampleScenario.node[75].veinsmobility 	totalCO2Emission 	706.47831758279
scalar RSUExampleScenario.node[76].veinsmobility 	startTime 	456.1
scalar RSUExampleScenario.node[76].veinsmobility 	totalTime 	227
scalar RSUExampleScenario.node[76].veinsmobility 	stopTime 	683.2
scalar RSUExampleScenario.node[76].veinsmobility 	minSpeed 	0.25015619539912
scalar RSUExampleScenario.node[76].veinsmobility 	maxSpeed 	18.999214758819
scalar RSUExampleScenario.node[76].veinsmobility 	totalDistance 	3409.5158972097
scalar RSUExampleScenario.node[76].veinsmobility 	totalCO2Emission 	705.30309410982
scalar RSUExampleScenario.node[77].veinsmobility 	startTime 	462.1
scalar RSUExampleScenario.node[77].veinsmobility 	totalTime 	226.8
scalar RSUExampleScenario.node[77].veinsmobility 	stopTime 	689
scalar RSUExampleScenario.node[77].veinsmobility 	minSpeed 	0.25206871218071
scalar RSUExampleScenario.node[77].veinsmobility 	maxSpeed 	18.999856754194
scalar RSUExampleScenario.node[77].veinsmobility 	totalDistance 	3409.5810961192
scalar RSUExampleScenario.node[77].veinsmobility 	totalCO2Emission 	709.16918921645
scalar RSUExampleScenario.node[78].veinsmobility 	startTime 	468.1
scalar RSUExampleScenario.node[78].veinsmobility 	totalTime 	226.9
scalar RSUExampleScenario.node[78].veinsmobility 	stopTime 	695.1
scalar RSUExampleScenario.node[78].veinsmobility 	minSpeed 	0.25796690956433
scalar RSUExampleScenario.node[78].veinsmobility 	maxSpeed 	18.999822061122
scalar RSUExampleScenario.node[78].veinsmobility 	totalDistance 	3409.5312465978
scalar RSUExampleScenario.node[78].veinsmobility 	totalCO2Emission 	706.13240031782
scalar RSUExampleScenario.node[79].veinsmobility 	startTime 	474.1
scalar RSUExampleScenario.node[79].veinsmobility 	totalTime 	226.9
scalar RSUExampleScenario.node[79].veinsmobility 	stopTime 	701.1
scalar RSUExampleScenario.node[79].veinsmobility 	minSpeed 	0.249984748099
scalar RSUExampleScenario.node[79].veinsmobility 	maxSpeed 	18.999754560159
scalar RSUExampleScenario.node[79].veinsmobility 	totalDistance 	3409.5840462648
scalar RSUExampleScenario.node[79].veinsmobility 	totalCO2Emission 	712.7747401544
scalar RSUExampleScenario.node[80].veinsmobility 	startTime 	480.1
scalar RSUExampleScenario.node[80].veinsmobility 	totalTime 	227
scalar RSUExampleScenario.node[80].veinsmobility 	stopTime 	707.2
scalar RSUExampleScenario.node[80].veinsmobility 	minSpeed 	0.25262149420846
scalar RSUExampleScenario.node[80].veinsmobility 	maxSpeed 	18.999866103309
scalar RSUExampleScenario.node[80].veinsmobility 	totalDistance 	3409.7989387013
scalar RSUExampleScenario.node[80].veinsmobility 	totalCO2Emission 	709.31138868815
scalar RSUExampleScenario.node[81].veinsmobility 	startTime 	486.1
scalar RSUExampleScenario.node[81].veinsmobility 	totalTime 	226.7
scalar RSUExampleScenario.node[81].veinsmobility 	stopTime 	712.9
scalar RSUExampleScenario.node[81].veinsmobility 	minSpeed 	0.25506381582865
scalar RSUExampleScenario.node[81].veinsmobility 	maxSpeed 	18.999866131095
scalar RSUExampleScenario.node[81].veinsmobility 	totalDistance 	3409.4001437157
scalar RSUExampleScenario.node[81].veinsmobility 	totalCO2Emission 	702.44682838357
scalar RSUExampleScenario.node[82].veinsmobility 	startTime 	492.1
scalar RSUExampleScenario.node[82].veinsmobility 	totalTime 	226.5
scalar RSUExampleScenario.node[82].veinsmobility 	stopTime 	718.7
scalar RSUExampleScenario.node[82].veinsmobility 	minSpeed 	0.25882661878061
scalar RSUExampleScenario.node[82].veinsmobility 	maxSpeed 	18.999817118754
scalar RSUExampleScenario.node[82].veinsmobility 	totalDistance 	3409.0647595923
scalar RSUExampleScenario.node[82].veinsmobility 	totalCO2Emission 	707.52544340665
scalar RSUExampleScenario.node[83].veinsmobility 	startTime 	498.1
scalar RSUExampleScenario.node[83].veinsmobility 	totalTime 	227
scalar RSUExampleScenario.node[83].veinsmobility 	stopTime 	725.2
scalar RSUExampleScenario.node[83].veinsmobility 	minSpeed 	0.24898667235486
scalar RSUExampleScenario.node[83].veinsmobility 	maxSpeed 	18.999951152226
scalar RSUExampleScenario.node[83].veinsmobility 	totalDistance 	3409.5920497268
scalar RSUExampleScenario.node[83].veinsmobility 	totalCO2Emission 	704.54370241389
scalar RSUExampleScenario.node[84].veinsmobility 	startTime 	504.1
scalar RSUExampleScenario.node[84].veinsmobility 	totalTime 	226.6
scalar RSUExampleScenario.node[84].veinsmobility 	stopTime 	730.8
scalar RSUExampleScenario.node[84].veinsmobility 	minSpeed 	0.25265520773293
scalar RSUExampleScenario.node[84].veinsmobility 	maxSpeed 	18.999958072305
scalar RSUExampleScenario.node[84].veinsmobility 	totalDistance 	3409.6138818727
scalar RSUExampleScenario.node[84].veinsmobility 	totalCO2Emission 	707.18152042492
scalar RSUExampleScenario.node[85].veinsmobility 	startTime 	510.1
scalar RSUExampleScenario.node[85].veinsmobility 	totalTime 	226.7
scalar RSUExampleScenario.node[85].veinsmobility 	stopTime 	736.9
scalar RSUExampleScenario.node[85].veinsmobility 	minSpeed 	0.24711803688528
scalar RSUExampleScenario.node[85].veinsmobility 	maxSpeed 	18.999756970883
scalar RSUExampleScenario.node[85].veinsmobility 	totalDistance 	3409.1097193399
scalar RSUExampleScenario.node[85].veinsmobility 	totalCO2Emission 	708.97649587936
scalar RSUExampleScenario.node[86].veinsmobility 	startTime 	516.1
scalar RSUExampleScenario.node[86].veinsmobility 	totalTime 	226.8
scalar RSUExampleScenario.node[86].veinsmobility 	stopTime 	743
scalar RSUExampleScenario.node[86].veinsmobility 	minSpeed 	0.24985559629858
scalar RSUExampleScenario.node[86].veinsmobility 	maxSpeed 	18.9993128128
scalar RSUExampleScenario.node[86].veinsmobility 	totalDistance 	3409.7970840224
scalar RSUExampleScenario.node[86].veinsmobility 	totalCO2Emission 	706.23168814433
scalar RSUExampleScenario.node[87].veinsmobility 	startTime 	522.1
scalar RSUExampleScenario.node[87].veinsmobility 	totalTime 	227.2
scalar RSUExampleScenario.node[87].veinsmobility 	stopTime 	749.4
scalar RSUExampleScenario.node[87].veinsmobility 	minSpeed 	0.25058983904729
scalar RSUExampleScenario.node[87].veinsmobility 	maxSpeed 	18.999860330811
scalar RSUExampleScenario.node[87].veinsmobility 	totalDistance 	3409.6070670865
scalar RSUExampleScenario.node[87].veinsmobility 	totalCO2Emission 	706.67011925007
scalar RSUExampleScenario.node[88].veinsmobility 	startTime 	528.1
scalar RSUExampleScenario.node[88].veinsmobility 	totalTime 	226.8
scalar RSUExampleScenario.node[88].veinsmobility 	stopTime 	755
scalar RSUExampleScenario.node[88].veinsmobility 	minSpeed 	0.25882222761051
scalar RSUExampleScenario.node[88].veinsmobility 	maxSpeed 	18.999744466664
scalar RSUExampleScenario.node[88].veinsmobility 	totalDistance 	3409.5536356704
scalar RSUExampleScenario.node[88].veinsmobility 	totalCO2Emission 	705.50542263133
scalar RSUExampleScenario.node[89].veinsmobility 	startTime 	534.1
scalar RSUExampleScenario.node[89].veinsmobility 	totalTime 	226.8
scalar RSUExampleScenario.node[89].veinsmobility 	stopTime 	761
scalar RSUExampleScenario.node[89].veinsmobility 	minSpeed 	0.25930375199742
scalar RSUExampleScenario.node[89].veinsmobility 	maxSpeed 	18.999638018797
scalar RSUExampleScenario.node[89].veinsmobility 	totalDistance 	3409.6783632376
scalar RSUExampleScenario.node[89].veinsmobility 	totalCO2Emission 	709.1787232466
scalar RSUExampleScenario.node[90].veinsmobility 	startTime 	540.1
scalar RSUExampleScenario.node[90].veinsmobility 	totalTime 	227.1
scalar RSUExampleScenario.node[90].veinsmobility 	stopTime 	767.3
scalar RSUExampleScenario.node[90].veinsmobility 	minSpeed 	0.25063172728824
scalar RSUExampleScenario.node[90].veinsmobility 	maxSpeed 	18.999469580585
scalar RSUExampleScenario.node[90].veinsmobility 	totalDistance 	3409.2644020575
scalar RSUExampleScenario.node[90].veinsmobility 	totalCO2Emission 	709.73440002267
scalar RSUExampleScenario.node[91].veinsmobility 	startTime 	546.1
scalar RSUExampleScenario.node[91].veinsmobility 	totalTime 	227
scalar RSUExampleScenario.node[91].veinsmobility 	stopTime 	773.2
scalar RSUExampleScenario.node[91].veinsmobility 	minSpeed 	0.25353843918606
scalar RSUExampleScenario.node[91].veinsmobility 	maxSpeed 	18.999973250609
scalar RSUExampleScenario.node[91].veinsmobility 	totalDistance 	3409.6306223484
scalar RSUExampleScenario.node[91].veinsmobility 	totalCO2Emission 	708.46355632329
scalar RSUExampleScenario.node[92].veinsmobility 	startTime 	552.1
scalar RSUExampleScenario.node[92].veinsmobility 	totalTime 	226.6
scalar RSUExampleScenario.node[92].veinsmobility 	stopTime 	778.8
scalar RSUExampleScenario.node[92].veinsmobility 	minSpeed 	0.25175270272349
scalar RSUExampleScenario.node[92].veinsmobility 	maxSpeed 	18.999857807127
scalar RSUExampleScenario.node[92].veinsmobility 	totalDistance 	3409.3487312404
scalar RSUExampleScenario.node[92].veinsmobility 	totalCO2Emission 	708.50783530456
scalar RSUExampleScenario.node[93].veinsmobility 	startTime 	558.1
scalar RSUExampleScenario.node[93].veinsmobility 	totalTime 	226.8
scalar RSUExampleScenario.node[93].veinsmobility 	stopTime 	785
scalar RSUExampleScenario.node[93].veinsmobility 	minSpeed 	0.25929840591177
scalar RSUExampleScenario.node[93].veinsmobility 	maxSpeed 	18.999972270078
scalar RSUExampleScenario.node[93].veinsmobility 	totalDistance 	3409.127873888
scalar RSUExampleScenario.node[93].veinsmobility 	totalCO2Emission 	705.51234486207
scalar RSUExampleScenario.node[94].veinsmobility 	startTime 	564.1
scalar RSUExampleScenario.node[94].veinsmobility 	totalTime 	227.1
scalar RSUExampleScenario.node[94].veinsmobility 	stopTime 	791.3
scalar RSUExampleScenario.node[94].veinsmobility 	minSpeed 	0.24745053241728
scalar RSUExampleScenario.node[94].veinsmobility 	maxSpeed 	18.999791319172
scalar RSUExampleScenario.node[94].veinsmobility 	totalDistance 	3409.8810718519
scalar RSUExampleScenario.node[94].veinsmobility 	totalCO2Emission 	707.44560535242
scalar RSUExampleScenario.node[95].veinsmobility 	startTime 	570.1
scalar RSUExampleScenario.node[95].veinsmobility 	totalTime 	226.6
scalar RSUExampleScenario.node[95].veinsmobility 	stopTime 	796.8
scalar RSUExampleScenario.node[95].veinsmobility 	minSpeed 	0.25507205292745
scalar RSUExampleScenario.node[95].veinsmobility 	maxSpeed 	18.999823927144
scalar RSUExampleScenario.node[95].veinsmobility 	totalDistance 	3409.8358567708
scalar RSUExampleScenario.node[95].veinsmobility 	totalCO2Emission 	709.68078267353
scalar RSUExampleScenario.node[96].veinsmobility 	startTime 	576.1
scalar RSUExampleScenario.node[96].veinsmobility 	totalTime 	227.2
scalar RSUExampleScenario.node[96].veinsmobility 	stopTime 	803.4
scalar RSUExampleScenario.node[96].veinsmobility 	minSpeed 	0.25599421932898
scalar RSUExampleScenario.node[96].veinsmobility 	maxSpeed 	18.999505943421
scalar RSUExampleScenario.node[96].veinsmobility 	totalDistance 	3409.1517839261
scalar RSUExampleScenario.node[96].veinsmobility 	totalCO2Emission 	707.53790131036
scalar RSUExampleScenario.node[97].veinsmobility 	startTime 	582.1
scalar RSUExampleScenario.node[97].veinsmobility 	totalTime 	226.8
scalar RSUExampleScenario.node[97].veinsmobility 	stopTime 	809
scalar RSUExampleScenario.node[97].veinsmobility 	minSpeed 	0.25142410211498
scalar RSUExampleScenario.node[97].veinsmobility 	maxSpeed 	18.99933584722
scalar RSUExampleScenario.node[97].veinsmobility 	totalDistance 	3409.2679099846
scalar RSUExampleScenario.node[97].veinsmobility 	totalCO2Emission 	710.01304935159
scalar RSUExampleScenario.node[98].veinsmobility 	startTime 	588.1
scalar RSUExampleScenario.node[98].veinsmobility 	totalTime 	227
scalar RSUExampleScenario.node[98].veinsmobility 	stopTime 	815.2
scalar RSUExampleScenario.node[98].veinsmobility 	minSpeed 	0.25901247838698
scalar RSUExampleScenario.node[98].veinsmobility 	maxSpeed 	18.999827452183
scalar RSUExampleScenario.node[98].veinsmobility 	totalDistance 	3409.1798498714
scalar RSUExampleScenario.node[98].veinsmobility 	totalCO2Emission 	703.70217537875
scalar RSUExampleScenario.node[99].veinsmobility 	startTime 	594.1
scalar RSUExampleScenario.node[99].veinsmobility 	totalTime 	226.8
scalar RSUExampleScenario.node[99].veinsmobility 	stopTime 	821
scalar RSUExampleScenario.node[99].veinsmobility 	minSpeed 	0.2491375653937
scalar RSUExampleScenario.node[99].veinsmobility 	maxSpeed 	18.999924509954
scalar RSUExampleScenario.node[99].veinsmobility 	totalDistance 	3409.3818962851
scalar RSUExampleScenario.node[99].veinsmobility 	totalCO2Emission 	711.5439145968
scalar RSUExampleScenario.node[100].veinsmobility 	startTime 	600.1
scalar RSUExampleScenario.node[100].veinsmobility 	totalTime 	227.1
scalar RSUExampleScenario.node[100].veinsmobility 	stopTime 	827.3
scalar RSUExampleScenario.node[100].veinsmobility 	minSpeed 	0.25322886232915
scalar RSUExampleScenario.node[100].veinsmobility 	maxSpeed 	18.999905619069
scalar RSUExampleScenario.node[100].veinsmobility 	totalDistance 	3409.5563822866
scalar RSUExampleScenario.node[100].veinsmobility 	totalCO2Emission 	707.39985764346
scalar RSUExampleScenario.node[101].veinsmobility 	startTime 	606.1
scalar RSUExampleScenario.node[101].veinsmobility 	totalTime 	226.9
scalar RSUExampleScenario.node[101].veinsmobility 	stopTime 	833.1
scalar RSUExampleScenario.node[101].veinsmobility 	minSpeed 	0.25653204160556
scalar RSUExampleScenario.node[101].veinsmobility 	maxSpeed 	18.999358423171
scalar RSUExampleScenario.node[101].veinsmobility 	totalDistance 	3409.2308998724
scalar RSUExampleScenario.node[101].veinsmobility 	totalCO2Emission 	709.96320839096
scalar RSUExampleScenario.node[102].veinsmobility 	startTime 	612.1
scalar RSUExampleScenario.node[102].veinsmobility 	totalTime 	227
scalar RSUExampleScenario.node[102].veinsmobility 	stopTime 	839.2
scalar RSUExampleScenario.node[102].veinsmobility 	minSpeed 	0.25629600535519
scalar RSUExampleScenario.node[102].veinsmobility 	maxSpeed 	18.999685301413
scalar RSUExampleScenario.node[102].veinsmobility 	totalDistance 	3409.1522869073
scalar RSUExampleScenario.node[102].veinsmobility 	totalCO2Emission 	703.84748215915
scalar RSUExampleScenario.node[103].veinsmobility 	startTime 	618.1
scalar RSUExampleScenario.node[103].veinsmobility 	totalTime 	226.7
scalar RSUExampleScenario.node[103].veinsmobility 	stopTime 	844.9
scalar RSUExampleScenario.node[103].veinsmobility 	minSpeed 	0.24723058335204
scalar RSUExampleScenario.node[103].veinsmobility 	maxSpeed 	18.99984982325
scalar RSUExampleScenario.node[103].veinsmobility 	totalDistance 	3409.4413382199
scalar RSUExampleScenario.node[103].veinsmobility 	totalCO2Emission 	709.20705559101
scalar RSUExampleScenario.node[104].veinsmobility 	startTime 	624.1
scalar RSUExampleScenario.node[104].veinsmobility 	totalTime 	226.6
scalar RSUExampleScenario.node[104].veinsmobility 	stopTime 	850.8
scalar RSUExampleScenario.node[104].veinsmobility 	minSpeed 	0.25690359294298
scalar RSUExampleScenario.node[104].veinsmobility 	maxSpeed 	18.999884956025
scalar RSUExampleScenario.node[104].veinsmobility 	totalDistance 	3409.1704077349
scalar RSUExampleScenario.node[104].veinsmobility 	totalCO2Emission 	708.02267051465
scalar RSUExampleScenario.node[105].veinsmobility 	startTime 	630.1
scalar RSUExampleScenario.node[105].veinsmobility 	totalTime 	226.9
scalar RSUExampleScenario.node[105].veinsmobility 	stopTime 	857.1
scalar RSUExampleScenario.node[105].veinsmobility 	minSpeed 	0.25441848717676
scalar RSUExampleScenario.node[105].veinsmobility 	maxSpeed 	18.999733759305
scalar RSUExampleScenario.node[105].veinsmobility 	totalDistance 	3409.8816783966
scalar RSUExampleScenario.node[105].veinsmobility 	totalCO2Emission 	704.55500875191
scalar RSUExampleScenario.node[106].veinsmobility 	startTime 	636.1
scalar RSUExampleScenario.node[106].veinsmobility 	totalTime 	226.9
scalar RSUExampleScenario.node[106].veinsmobility 	stopTime 	863.1
scalar RSUExampleScenario.node[106].veinsmobility 	minSpeed 	0.25561095841043
scalar RSUExampleScenario.node[106].veinsmobility 	maxSpeed 	18.999541285317
scalar RSUExampleScenario.node[106].veinsmobility 	totalDistance 	3409.3385320661
scalar RSUExampleScenario.node[106].veinsmobility 	totalCO2Emission 	710.33660755081
scalar RSUExampleScenario.node[107].veinsmobility 	startTime 	642.1
scalar RSUExampleScenario.node[107].veinsmobility 	totalTime 	226.9
scalar RSUExampleScenario.node[107].veinsmobility 	stopTime 	869.1
scalar RSUExampleScenario.node[107].veinsmobility 	minSpeed 	0.25112607868365
scalar RSUExampleScenario.node[107].veinsmobility 	maxSpeed 	18.999838722982
scalar RSUExampleScenario.node[107].veinsmobility 	totalDistance 	3409.0595276063
scalar RSUExampleScenario.node[107].veinsmobility 	totalCO2Emission 	709.15727550732
scalar RSUExampleScenario.node[108].veinsmobility 	startTime 	648.1
scalar RSUExampleScenario.node[108].veinsmobility 	totalTime 	226.8
scalar RSUExampleScenario.node[108].veinsmobility 	stopTime 	875
scalar RSUExampleScenario.node[108].veinsmobility 	minSpeed 	0.25695765713719
scalar RSUExampleScenario.node[108].veinsmobility 	maxSpeed 	18.999804200712
scalar RSUExampleScenario.node[108].veinsmobility 	totalDistance 	3409.6207107499
scalar RSUExampleScenario.node[108].veinsmobility 	totalCO2Emission 	708.20241729393
scalar RSUExampleScenario.node[109].veinsmobility 	startTime 	654.1
scalar RSUExampleScenario.node[109].veinsmobility 	totalTime 	226.8
scalar RSUExampleScenario.node[109].veinsmobility 	stopTime 	881
scalar RSUExampleScenario.node[109].veinsmobility 	minSpeed 	0.2564203971338
scalar RSUExampleScenario.node[109].veinsmobility 	maxSpeed 	18.999973494085
scalar RSUExampleScenario.node[109].veinsmobility 	totalDistance 	3409.5718303968
scalar RSUExampleScenario.node[109].veinsmobility 	totalCO2Emission 	709.12802527663
scalar RSUExampleScenario.node[110].veinsmobility 	startTime 	660.1
scalar RSUExampleScenario.node[110].veinsmobility 	totalTime 	227.3
scalar RSUExampleScenario.node[110].veinsmobility 	stopTime 	887.5
scalar RSUExampleScenario.node[110].veinsmobility 	minSpeed 	0.2538446982149
scalar RSUExampleScenario.node[110].veinsmobility 	maxSpeed 	18.999790110178
scalar RSUExampleScenario.node[110].veinsmobility 	totalDistance 	3409.3347114217
scalar RSUExampleScenario.node[110].veinsmobility 	totalCO2Emission 	710.22383345895
scalar RSUExampleScenario.node[111].veinsmobility 	startTime 	666.1
scalar RSUExampleScenario.node[111].veinsmobility 	totalTime 	227
scalar RSUExampleScenario.node[111].veinsmobility 	stopTime 	893.2
scalar RSUExampleScenario.node[111].veinsmobility 	minSpeed 	0.24792334859632
scalar RSUExampleScenario.node[111].veinsmobility 	maxSpeed 	18.999533481868
scalar RSUExampleScenario.node[111].veinsmobility 	totalDistance 	3409.807245657
scalar RSUExampleScenario.node[111].veinsmobility 	totalCO2Emission 	706.71373708125
scalar RSUExampleScenario.node[112].veinsmobility 	startTime 	672.1
scalar RSUExampleScenario.node[112].veinsmobility 	totalTime 	226.7
scalar RSUExampleScenario.node[112].veinsmobility 	stopTime 	898.9
scalar RSUExampleScenario.node[112].veinsmobility 	minSpeed 	0.25797705175728
scalar RSUExampleScenario.node[112].veinsmobility 	maxSpeed 	18.999650677564
scalar RSUExampleScenario.node[112].veinsmobility 	totalDistance 	3409.326287047
scalar RSUExampleScenario.node[112].veinsmobility 	totalCO2Emission 	702.93730320746
scalar RSUExampleScenario.node[113].veinsmobility 	startTime 	678.1
scalar RSUExampleScenario.node[113].veinsmobility 	totalTime 	226.8
scalar RSUExampleScenario.node[113].veinsmobility 	stopTime 	905
scalar RSUExampleScenario.node[113].veinsmobility 	minSpeed 	0.25350973294862
scalar RSUExampleScenario.node[113].veinsmobility 	maxSpeed 	18.99975685874
scalar RSUExampleScenario.node[113].veinsmobility 	totalDistance 	3409.2292009924
scalar RSUExampleScenario.node[113].veinsmobility 	totalCO2Emission 	708.37242816324
scalar RSUExampleScenario.node[114].veinsmobility 	startTime 	684.1
scalar RSUExampleScenario.node[114].veinsmobility 	totalTime 	226.8
scalar RSUExampleScenario.node[114].veinsmobility 	stopTime 	911
scalar RSUExampleScenario.node[114].veinsmobility 	minSpeed 	0.25551252367976
scalar RSUExampleScenario.node[114].veinsmobility 	maxSpeed 	18.999825090857
scalar RSUExampleScenario.node[114].veinsmobility 	totalDistance 	3409.4733675734
scalar RSUExampleScenario.node[114].veinsmobility 	totalCO2Emission 	706.91867309345
scalar RSUExampleScenario.node[115].veinsmobility 	startTime 	690.1
scalar RSUExampleScenario.node[115].veinsmobility 	totalTime 	227
scalar RSUExampleScenario.node[115].veinsmobility 	stopTime 	917.2
scalar RSUExampleScenario.node[115].veinsmobility 	minSpeed 	0.25179935228475
scalar RSUExampleScenario.node[115].veinsmobility 	maxSpeed 	18.99999090886
scalar RSUExampleScenario.node[115].veinsmobility 	totalDistance 	3409.2842473641
scalar RSUExampleScenario.node[115].veinsmobility 	totalCO2Emission 	710.41635548587
scalar RSUExampleScenario.node[116].veinsmobility 	startTime 	696.1
scalar RSUExampleScenario.node[116].veinsmobility 	totalTime 	226.9
scalar RSUExampleScenario.node[116].veinsmobility 	stopTime 	923.1
scalar RSUExampleScenario.node[116].veinsmobility 	minSpeed 	0.24879061405431
scalar RSUExampleScenario.node[116].veinsmobility 	maxSpeed 	18.999144435215
scalar RSUExampleScenario.node[116].veinsmobility 	totalDistance 	3409.4916422409
scalar RSUExampleScenario.node[116].veinsmobility 	totalCO2Emission 	705.51459074262
scalar RSUExampleScenario.node[117].veinsmobility 	startTime 	702.1
scalar RSUExampleScenario.node[117].veinsmobility 	totalTime 	226.7
scalar RSUExampleScenario.node[117].veinsmobility 	stopTime 	928.9
scalar RSUExampleScenario.node[117].veinsmobility 	minSpeed 	0.25085503491922
scalar RSUExampleScenario.node[117].veinsmobility 	maxSpeed 	18.999939305217
scalar RSUExampleScenario.node[117].veinsmobility 	totalDistance 	3409.2219540402
scalar RSUExampleScenario.node[117].veinsmobility 	totalCO2Emission 	705.27458175071
scalar RSUExampleScenario.node[118].veinsmobility 	startTime 	708.1
scalar RSUExampleScenario.node[118].veinsmobility 	totalTime 	226.7
scalar RSUExampleScenario.node[118].veinsmobility 	stopTime 	934.9
scalar RSUExampleScenario.node[118].veinsmobility 	minSpeed 	0.25755338884355
scalar RSUExampleScenario.node[118].veinsmobility 	maxSpeed 	18.999646477336
scalar RSUExampleScenario.node[118].veinsmobility 	totalDistance 	3409.4511146559
scalar RSUExampleScenario.node[118].veinsmobility 	totalCO2Emission 	708.33591105851
scalar RSUExampleScenario.node[119].veinsmobility 	startTime 	714.1
scalar RSUExampleScenario.node[119].veinsmobility 	totalTime 	226.9
scalar RSUExampleScenario.node[119].veinsmobility 	stopTime 	941.1
scalar RSUExampleScenario.node[119].veinsmobility 	minSpeed 	0.25034275285201
scalar RSUExampleScenario.node[119].veinsmobility 	maxSpeed 	18.999916230571
scalar RSUExampleScenario.node[119].veinsmobility 	totalDistance 	3409.2347867058
scalar RSUExampleScenario.node[119].veinsmobility 	totalCO2Emission 	704.8455682222
scalar RSUExampleScenario.node[120].veinsmobility 	startTime 	720.1
scalar RSUExampleScenario.node[120].veinsmobility 	totalTime 	226.8
scalar RSUExampleScenario.node[120].veinsmobility 	stopTime 	947
scalar RSUExampleScenario.node[120].veinsmobility 	minSpeed 	0.25929374177894
scalar RSUExampleScenario.node[120].veinsmobility 	maxSpeed 	18.999774678592
scalar RSUExampleScenario.node[120].veinsmobility 	totalDistance 	3409.4410809471
scalar RSUExampleScenario.node[120].veinsmobility 	totalCO2Emission 	706.89187976328
scalar RSUExampleScenario.node[121].veinsmobility 	startTime 	726.1
scalar RSUExampleScenario.node[121].veinsmobility 	totalTime 	227.4
scalar RSUExampleScenario.node[121].veinsmobility 	stopTime 	953.6
scalar RSUExampleScenario.node[121].veinsmobility 	minSpeed 	0.25705665293941
scalar RSUExampleScenario.node[121].veinsmobility 	maxSpeed 	18.999986865269
scalar RSUExampleScenario.node[121].veinsmobility 	totalDistance 	3409.2251055672
scalar RSUExampleScenario.node[121].veinsmobility 	totalCO2Emission 	706.31745356785
scalar RSUExampleScenario.node[122].veinsmobility 	startTime 	732.1
scalar RSUExampleScenario.node[122].veinsmobility 	totalTime 	226.9
scalar RSUExampleScenario.node[122].veinsmobility 	stopTime 	959.1
scalar RSUExampleScenario.node[122].veinsmobility 	minSpeed 	0.24708334850776
scalar RSUExampleScenario.node[122].veinsmobility 	maxSpeed 	18.999783295523
scalar RSUExampleScenario.node[122].veinsmobility 	totalDistance 	3409.5788278244
scalar RSUExampleScenario.node[122].veinsmobility 	totalCO2Emission 	705.32584173378
scalar RSUExampleScenario.node[123].veinsmobility 	startTime 	738.1
scalar RSUExampleScenario.node[123].veinsmobility 	totalTime 	226.9
scalar RSUExampleScenario.node[123].veinsmobility 	stopTime 	965.1
scalar RSUExampleScenario.node[123].veinsmobility 	minSpeed 	0.25539853989542
scalar RSUExampleScenario.node[123].veinsmobility 	maxSpeed 	18.999780188424
scalar RSUExampleScenario.node[123].veinsmobility 	totalDistance 	3409.6616602987
scalar RSUExampleScenario.node[123].veinsmobility 	totalCO2Emission 	709.24914749195
scalar RSUExampleScenario.node[124].veinsmobility 	startTime 	744.1
scalar RSUExampleScenario.node[124].veinsmobility 	totalTime 	227.1
scalar RSUExampleScenario.node[124].veinsmobility 	stopTime 	971.3
scalar RSUExampleScenario.node[124].veinsmobility 	minSpeed 	0.25917990579014
scalar RSUExampleScenario.node[124].veinsmobility 	maxSpeed 	18.999725740801
scalar RSUExampleScenario.node[124].veinsmobility 	totalDistance 	3409.5260108839
scalar RSUExampleScenario.node[124].veinsmobility 	totalCO2Emission 	706.23862762091
scalar RSUExampleScenario.node[125].veinsmobility 	startTime 	750.1
scalar RSUExampleScenario.node[125].veinsmobility 	totalTime 	226.9
scalar RSUExampleScenario.node[125].veinsmobility 	stopTime 	977.1
scalar RSUExampleScenario.node[125].veinsmobility 	minSpeed 	0.25512741503702
scalar RSUExampleScenario.node[125].veinsmobility 	maxSpeed 	18.999892961846
scalar RSUExampleScenario.node[125].veinsmobility 	totalDistance 	3409.630556418
scalar RSUExampleScenario.node[125].veinsmobility 	totalCO2Emission 	708.94025783673
scalar RSUExampleScenario.node[126].veinsmobility 	startTime 	756.1
scalar RSUExampleScenario.node[126].veinsmobility 	totalTime 	226.8
scalar RSUExampleScenario.node[126].veinsmobility 	stopTime 	983
scalar RSUExampleScenario.node[126].veinsmobility 	minSpeed 	0.2595942500846
scalar RSUExampleScenario.node[126].veinsmobility 	maxSpeed 	18.999809653126
scalar RSUExampleScenario.node[126].veinsmobility 	totalDistance 	3409.7575176286
scalar RSUExampleScenario.node[126].veinsmobility 	totalCO2Emission 	707.13653166583
scalar RSUExampleScenario.node[127].veinsmobility 	startTime 	762.1
scalar RSUExampleScenario.node[127].veinsmobility 	totalTime 	226.9
scalar RSUExampleScenario.node[127].veinsmobility 	stopTime 	989.1
scalar RSUExampleScenario.node[127].veinsmobility 	minSpeed 	0.25227334540407
scalar RSUExampleScenario.node[127].veinsmobility 	maxSpeed 	18.999445476162
scalar RSUExampleScenario.node[127].veinsmobility 	totalDistance 	3409.171658141
scalar RSUExampleScenario.node[127].veinsmobility 	totalCO2Emission 	702.67239770743
scalar RSUExampleScenario.node[128].veinsmobility 	startTime 	768.1
scalar RSUExampleScenario.node[128].veinsmobility 	totalTime 	226.9
scalar RSUExampleScenario.node[128].veinsmobility 	stopTime 	995.1
scalar RSUExampleScenario.node[128].veinsmobility 	minSpeed 	0.25087812460237
scalar RSUExampleScenario.node[128].veinsmobility 	maxSpeed 	18.999772783422
scalar RSUExampleScenario.node[128].veinsmobility 	totalDistance 	3409.2240051644
scalar RSUExampleScenario.node[128].veinsmobility 	totalCO2Emission 	707.96854350655
scalar RSUExampleScenario.node[129].veinsmobility 	startTime 	774.1
scalar RSUExampleScenario.node[129].veinsmobility 	totalTime 	226.8
scalar RSUExampleScenario.node[129].veinsmobility 	stopTime 	1001
scalar RSUExampleScenario.node[129].veinsmobility 	minSpeed 	0.25051103341579
scalar RSUExampleScenario.node[129].veinsmobility 	maxSpeed 	18.99990371818
scalar RSUExampleScenario.node[129].veinsmobility 	totalDistance 	3409.8135082566
scalar RSUExampleScenario.node[129].veinsmobility 	totalCO2Emission 	707.60538702639
scalar RSUExampleScenario.node[130].veinsmobility 	startTime 	780.1
scalar RSUExampleScenario.node[130].veinsmobility 	totalTime 	226.9
scalar RSUExampleScenario.node[130].veinsmobility 	stopTime 	1007.1
scalar RSUExampleScenario.node[130].veinsmobility 	minSpeed 	0.25450589525979
scalar RSUExampleScenario.node[130].veinsmobility 	maxSpeed 	18.999894179679
scalar RSUExampleScenario.node[130].veinsmobility 	totalDistance 	3409.0673407173
scalar RSUExampleScenario.node[130].veinsmobility 	totalCO2Emission 	710.63090551382
scalar RSUExampleScenario.node[131].veinsmobility 	startTime 	786.1
scalar RSUExampleScenario.node[131].veinsmobility 	totalTime 	226.9
scalar RSUExampleScenario.node[131].veinsmobility 	stopTime 	1013.1
scalar RSUExampleScenario.node[131].veinsmobility 	minSpeed 	0.25530296534696
scalar RSUExampleScenario.node[131].veinsmobility 	maxSpeed 	18.99995497931
scalar RSUExampleScenario.node[131].veinsmobility 	totalDistance 	3409.3800868446
scalar RSUExampleScenario.node[131].veinsmobility 	totalCO2Emission 	707.60157375883
scalar RSUExampleScenario.node[132].veinsmobility 	startTime 	792.1
scalar RSUExampleScenario.node[132].veinsmobility 	totalTime 	227.2
scalar RSUExampleScenario.node[132].veinsmobility 	stopTime 	1019.4
scalar RSUExampleScenario.node[132].veinsmobility 	minSpeed 	0.24755473315041
scalar RSUExampleScenario.node[132].veinsmobility 	maxSpeed 	18.99965790689
scalar RSUExampleScenario.node[132].veinsmobility 	totalDistance 	3409.1514529448
scalar RSUExampleScenario.node[132].veinsmobility 	totalCO2Emission 	709.73062309111
scalar RSUExampleScenario.node[133].veinsmobility 	startTime 	798.1
scalar RSUExampleScenario.node[133].veinsmobility 	totalTime 	226.9
scalar RSUExampleScenario.node[133].veinsmobility 	stopTime 	1025.1
scalar RSUExampleScenario.node[133].veinsmobility 	minSpeed 	0.25734787141369
scalar RSUExampleScenario.node[133].veinsmobility 	maxSpeed 	18.999528851078
scalar RSUExampleScenario.node[133].veinsmobility 	totalDistance 	3409.2975902446
scalar RSUExampleScenario.node[133].veinsmobility 	totalCO2Emission 	708.08983703205
scalar RSUExampleScenario.node[134].veinsmobility 	startTime 	804.1
scalar RSUExampleScenario.node[134].veinsmobility 	totalTime 	227
scalar RSUExampleScenario.node[134].veinsmobility 	stopTime 	1031.2
scalar RSUExampleScenario.node[134].veinsmobility 	minSpeed 	0.25179646810307
scalar RSUExampleScenario.node[134].veinsmobility 	maxSpeed 	18.999861714845
scalar RSUExampleScenario.node[134].veinsmobility 	totalDistance 	3409.0681166233
scalar RSUExampleScenario.node[134].veinsmobility 	totalCO2Emission 	707.63157595495
scalar RSUExampleScenario.node[135].veinsmobility 	startTime 	810.1
scalar RSUExampleScenario.node[135].veinsmobility 	totalTime 	227
scalar RSUExampleScenario.node[135].veinsmobility 	stopTime 	1037.2
scalar RSUExampleScenario.node[135].veinsmobility 	minSpeed 	0.25944651689613
scalar RSUExampleScenario.node[135].veinsmobility 	maxSpeed 	18.99992497257
scalar RSUExampleScenario.node[135].veinsmobility 	totalDistance 	3409.7659229858
scalar RSUExampleScenario.node[135].veinsmobility 	totalCO2Emission 	705.51886700205
scalar RSUExampleScenario.node[136].veinsmobility 	startTime 	816.1
scalar RSUExampleScenario.node[136].veinsmobility 	totalTime 	226.8
scalar RSUExampleScenario.node[136].veinsmobility 	stopTime 	1043
scalar RSUExampleScenario.node[136].veinsmobility 	minSpeed 	0.2500319059263
scalar RSUExampleScenario.node[136].veinsmobility 	maxSpeed 	18.999403736461
scalar RSUExampleScenario.node[136].veinsmobility 	totalDistance 	3409.460080122
scalar RSUExampleScenario.node[136].veinsmobility 	totalCO2Emission 	705.71166612596
scalar RSUExampleScenario.node[137].veinsmobility 	startTime 	822.1
scalar RSUExampleScenario.node[137].veinsmobility 	totalTime 	226.8
scalar RSUExampleScenario.node[137].veinsmobility 	stopTime 	1049
scalar RSUExampleScenario.node[137].veinsmobility 	minSpeed 	0.25063837291766
scalar RSUExampleScenario.node[137].veinsmobility 	maxSpeed 	18.99962786752
scalar RSUExampleScenario.node[137].veinsmobility 	totalDistance 	3409.6606049352
scalar RSUExampleScenario.node[137].veinsmobility 	totalCO2Emission 	707.77869538699
scalar RSUExampleScenario.node[138].veinsmobility 	startTime 	828.1
scalar RSUExampleScenario.node[138].veinsmobility 	totalTime 	226.8
scalar RSUExampleScenario.node[138].veinsmobility 	stopTime 	1055
scalar RSUExampleScenario.node[138].veinsmobility 	minSpeed 	0.25544808775233
scalar RSUExampleScenario.node[138].veinsmobility 	maxSpeed 	18.999995589138
scalar RSUExampleScenario.node[138].veinsmobility 	totalDistance 	3409.2253813777
scalar RSUExampleScenario.node[138].veinsmobility 	totalCO2Emission 	709.25181773629
scalar RSUExampleScenario.node[139].veinsmobility 	startTime 	834.1
scalar RSUExampleScenario.node[139].veinsmobility 	totalTime 	227
scalar RSUExampleScenario.node[139].veinsmobility 	stopTime 	1061.2
scalar RSUExampleScenario.node[139].veinsmobility 	minSpeed 	0.25018287911778
scalar RSUExampleScenario.node[139].veinsmobility 	maxSpeed 	18.999731756623
scalar RSUExampleScenario.node[139].veinsmobility 	totalDistance 	3409.6958672642
scalar RSUExampleScenario.node[139].veinsmobility 	totalCO2Emission 	708.19500385853
scalar RSUExampleScenario.node[140].veinsmobility 	startTime 	840.1
scalar RSUExampleScenario.node[140].veinsmobility 	totalTime 	227
scalar RSUExampleScenario.node[140].veinsmobility 	stopTime 	1067.2
scalar RSUExampleScenario.node[140].veinsmobility 	minSpeed 	0.25640244956338
scalar RSUExampleScenario.node[140].veinsmobility 	maxSpeed 	18.999775742935
scalar RSUExampleScenario.node[140].veinsmobility 	totalDistance 	3409.6639535405
scalar RSUExampleScenario.node[140].veinsmobility 	totalCO2Emission 	707.51356268611
scalar RSUExampleScenario.node[141].veinsmobility 	startTime 	846.1
scalar RSUExampleScenario.node[141].veinsmobility 	totalTime 	227
scalar RSUExampleScenario.node[141].veinsmobility 	stopTime 	1073.2
scalar RSUExampleScenario.node[141].veinsmobility 	minSpeed 	0.25408308500424
scalar RSUExampleScenario.node[141].veinsmobility 	maxSpeed 	18.999958314539
scalar RSUExampleScenario.node[141].veinsmobility 	totalDistance 	3409.6867537054
scalar RSUExampleScenario.node[141].veinsmobility 	totalCO2Emission 	710.164757807
scalar RSUExampleScenario.node[142].veinsmobility 	startTime 	852.1
scalar RSUExampleScenario.node[142].veinsmobility 	totalTime 	226.9
scalar RSUExampleScenario.node[142].veinsmobility 	stopTime 	1079.1
scalar RSUExampleScenario.node[142].veinsmobility 	minSpeed 	0.24956955923396
scalar RSUExampleScenario.node[142].veinsmobility 	maxSpeed 	18.999825891717
scalar RSUExampleScenario.node[142].veinsmobility 	totalDistance 	3410.0277179351
scalar RSUExampleScenario.node[142].veinsmobility 	totalCO2Emission 	710.97570277004
scalar RSUExampleScenario.node[143].veinsmobility 	startTime 	858.1
scalar RSUExampleScenario.node[143].veinsmobility 	totalTime 	226.6
scalar RSUExampleScenario.node[143].veinsmobility 	stopTime 	1084.8
scalar RSUExampleScenario.node[143].veinsmobility 	minSpeed 	0.25857079129457
scalar RSUExampleScenario.node[143].veinsmobility 	maxSpeed 	18.999984155619
scalar RSUExampleScenario.node[143].veinsmobility 	totalDistance 	3409.324253432
scalar RSUExampleScenario.node[143].veinsmobility 	totalCO2Emission 	708.05061921195
scalar RSUExampleScenario.node[144].veinsmobility 	startTime 	864.1
scalar RSUExampleScenario.node[144].veinsmobility 	totalTime 	226.8
scalar RSUExampleScenario.node[144].veinsmobility 	stopTime 	1091
scalar RSUExampleScenario.node[144].veinsmobility 	minSpeed 	0.25837616713648
scalar RSUExampleScenario.node[144].veinsmobility 	maxSpeed 	18.999901252277
scalar RSUExampleScenario.node[144].veinsmobility 	totalDistance 	3409.4458177551
scalar RSUExampleScenario.node[144].veinsmobility 	totalCO2Emission 	705.44210396927
scalar RSUExampleScenario.node[145].veinsmobility 	startTime 	870.1
scalar RSUExampleScenario.node[145].veinsmobility 	totalTime 	227.2
scalar RSUExampleScenario.node[145].veinsmobility 	stopTime 	1097.4
scalar RSUExampleScenario.node[145].veinsmobility 	minSpeed 	0.25229235345265
scalar RSUExampleScenario.node[145].veinsmobility 	maxSpeed 	18.999928943487
scalar RSUExampleScenario.node[145].veinsmobility 	totalDistance 	3409.1775203654
scalar RSUExampleScenario.node[145].veinsmobility 	totalCO2Emission 	707.79506146304
scalar RSUExampleScenario.node[146].veinsmobility 	startTime 	876.1
scalar RSUExampleScenario.node[146].veinsmobility 	totalTime 	227.2
scalar RSUExampleScenario.node[146].veinsmobility 	stopTime 	1103.4
scalar RSUExampleScenario.node[146].veinsmobility 	minSpeed 	0.25408035833715
scalar RSUExampleScenario.node[146].veinsmobility 	maxSpeed 	18.999995044162
scalar RSUExampleScenario.node[146].veinsmobility 	totalDistance 	3409.3191611005
scalar RSUExampleScenario.node[146].veinsmobility 	totalCO2Emission 	710.69958156381
scalar RSUExampleScenario.node[147].veinsmobility 	startTime 	882.1
scalar RSUExampleScenario.node[147].veinsmobility 	totalTime 	226.8
scalar RSUExampleScenario.node[147].veinsmobility 	stopTime 	1109
scalar RSUExampleScenario.node[147].veinsmobility 	minSpeed 	0.25083968096087
scalar RSUExampleScenario.node[147].veinsmobility 	maxSpeed 	18.999827882019
scalar RSUExampleScenario.node[147].veinsmobility 	totalDistance 	3409.1740096477
scalar RSUExampleScenario.node[147].veinsmobility 	totalCO2Emission 	709.39224857091
scalar RSUExampleScenario.node[148].veinsmobility 	startTime 	888.1
scalar RSUExampleScenario.node[148].veinsmobility 	totalTime 	226.8
scalar RSUExampleScenario.node[148].veinsmobility 	stopTime 	1115
scalar RSUExampleScenario.node[148].veinsmobility 	minSpeed 	0.25635582552105
scalar RSUExampleScenario.node[148].veinsmobility 	maxSpeed 	18.999939641161
scalar RSUExampleScenario.node[148].veinsmobility 	totalDistance 	3409.426834778
scalar RSUExampleScenario.node[148].veinsmobility 	totalCO2Emission 	702.8935389336
scalar RSUExampleScenario.node[149].veinsmobility 	startTime 	894.1
scalar RSUExampleScenario.node[149].veinsmobility 	totalTime 	226.9
scalar RSUExampleScenario.node[149].veinsmobility 	stopTime 	1121.1
scalar RSUExampleScenario.node[149].veinsmobility 	minSpeed 	0.25975443063024
scalar RSUExampleScenario.node[149].veinsmobility 	maxSpeed 	18.999301803457
scalar RSUExampleScenario.node[149].veinsmobility 	totalDistance 	3409.184880354
scalar RSUExampleScenario.node[149].veinsmobility 	totalCO2Emission 	705.66646362876
scalar RSUExampleScenario.node[150].veinsmobility 	startTime 	900.1
scalar RSUExampleScenario.node[150].veinsmobility 	totalTime 	226.9
scalar RSUExampleScenario.node[150].veinsmobility 	stopTime 	1127.1
scalar RSUExampleScenario.node[150].veinsmobility 	minSpeed 	0.25332092590653
scalar RSUExampleScenario.node[150].veinsmobility 	maxSpeed 	18.999931540147
scalar RSUExampleScenario.node[150].veinsmobility 	totalDistance 	3409.3663156276
scalar RSUExampleScenario.node[150].veinsmobility 	totalCO2Emission 	708.60682524045
scalar RSUExampleScenario.node[151].veinsmobility 	startTime 	906.1
scalar RSUExampleScenario.node[151].veinsmobility 	totalTime 	226.8
scalar RSUExampleScenario.node[151].veinsmobility 	stopTime 	1133
scalar RSUExampleScenario.node[151].veinsmobility 	minSpeed 	0.24766987848678
scalar RSUExampleScenario.node[151].veinsmobility 	maxSpeed 	18.99984883158
scalar RSUExampleScenario.node[151].veinsmobility 	totalDistance 	3409.6447259599
scalar RSUExampleScenario.node[151].veinsmobility 	totalCO2Emission 	706.70664416511
scalar RSUExampleScenario.node[152].veinsmobility 	startTime 	912.1
scalar RSUExampleScenario.node[152].veinsmobility 	totalTime 	226.8
scalar RSUExampleScenario.node[152].veinsmobility 	stopTime 	1139
scalar RSUExampleScenario.node[152].veinsmobility 	minSpeed 	0.25764281462063
scalar RSUExampleScenario.node[152].veinsmobility 	maxSpeed 	18.999920076693
scalar RSUExampleScenario.node[152].veinsmobility 	totalDistance 	3409.2342452353
scalar RSUExampleScenario.node[152].veinsmobility 	totalCO2Emission 	705.51161114514
[...]
scalar RSUExampleScenario.node[262].veinsmobility 	startTime 	1572.1
scalar RSUExampleScenario.node[262].veinsmobility 	totalTime 	227.1
scalar RSUExampleScenario.node[262].veinsmobility 	stopTime 	1799.3
scalar RSUExampleScenario.node[262].veinsmobility 	minSpeed 	0.25227144279797
scalar RSUExampleScenario.node[262].veinsmobility 	maxSpeed 	18.99986225988
scalar RSUExampleScenario.node[262].veinsmobility 	totalDistance 	3409.2145299886
scalar RSUExampleScenario.node[262].veinsmobility 	totalCO2Emission 	706.45040859941
scalar RSUExampleScenario.node[263].veinsmobility 	startTime 	1578.1
scalar RSUExampleScenario.node[263].veinsmobility 	totalTime 	227.2
scalar RSUExampleScenario.node[263].veinsmobility 	stopTime 	1805.4
scalar RSUExampleScenario.node[263].veinsmobility 	minSpeed 	0.25983676717943
scalar RSUExampleScenario.node[263].veinsmobility 	maxSpeed 	18.999317431513
scalar RSUExampleScenario.node[263].veinsmobility 	totalDistance 	3409.3778279954
scalar RSUExampleScenario.node[263].veinsmobility 	totalCO2Emission 	704.29279075738
scalar RSUExampleScenario.node[264].veinsmobility 	startTime 	1584.1
scalar RSUExampleScenario.node[264].veinsmobility 	totalTime 	227
scalar RSUExampleScenario.node[264].veinsmobility 	stopTime 	1811.2
scalar RSUExampleScenario.node[264].veinsmobility 	minSpeed 	0.25723011102341
scalar RSUExampleScenario.node[264].veinsmobility 	maxSpeed 	18.99994708424
scalar RSUExampleScenario.node[264].veinsmobility 	totalDistance 	3409.5029729902
scalar RSUExampleScenario.node[264].veinsmobility 	totalCO2Emission 	703.0162018685
scalar RSUExampleScenario.node[265].veinsmobility 	startTime 	1590.1
scalar RSUExampleScenario.node[265].veinsmobility 	totalTime 	226.8
scalar RSUExampleScenario.node[265].veinsmobility 	stopTime 	1817
scalar RSUExampleScenario.node[265].veinsmobility 	minSpeed 	0.25361329530878
scalar RSUExampleScenario.node[265].veinsmobility 	maxSpeed 	18.999419446331
scalar RSUExampleScenario.node[265].veinsmobility 	totalDistance 	3409.1167708215
scalar RSUExampleScenario.node[265].veinsmobility 	totalCO2Emission 	707.07297859725
scalar RSUExampleScenario.node[266].veinsmobility 	startTime 	1596.1
scalar RSUExampleScenario.node[266].veinsmobility 	totalTime 	226.8
scalar RSUExampleScenario.node[266].veinsmobility 	stopTime 	1823
scalar RSUExampleScenario.node[266].veinsmobility 	minSpeed 	0.24798338558991
scalar RSUExampleScenario.node[266].veinsmobility 	maxSpeed 	18.999854527197
scalar RSUExampleScenario.node[266].veinsmobility 	totalDistance 	3409.4940129798
scalar RSUExampleScenario.node[266].veinsmobility 	totalCO2Emission 	707.32924450318
scalar RSUExampleScenario.node[267].veinsmobility 	startTime 	1602.1
scalar RSUExampleScenario.node[267].veinsmobility 	totalTime 	226.8
scalar RSUExampleScenario.node[267].veinsmobility 	stopTime 	1829
scalar RSUExampleScenario.node[267].veinsmobility 	minSpeed 	0.25393643564871
scalar RSUExampleScenario.node[267].veinsmobility 	maxSpeed 	18.999942505693
scalar RSUExampleScenario.node[267].veinsmobility 	totalDistance 	3409.4578024547
scalar RSUExampleScenario.node[267].veinsmobility 	totalCO2Emission 	707.91817719259
scalar RSUExampleScenario.node[268].veinsmobility 	startTime 	1608.1
scalar RSUExampleScenario.node[268].veinsmobility 	totalTime 	227.1
scalar RSUExampleScenario.node[268].veinsmobility 	stopTime 	1835.3
scalar RSUExampleScenario.node[268].veinsmobility 	minSpeed 	0.25549542614026
scalar RSUExampleScenario.node[268].veinsmobility 	maxSpeed 	18.999979429152
scalar RSUExampleScenario.node[268].veinsmobility 	totalDistance 	3409.1505216024
scalar RSUExampleScenario.node[268].veinsmobility 	totalCO2Emission 	709.14331853652
scalar RSUExampleScenario.node[269].veinsmobility 	startTime 	1614.1
scalar RSUExampleScenario.node[269].veinsmobility 	totalTime 	226.9
scalar RSUExampleScenario.node[269].veinsmobility 	stopTime 	1841.1
scalar RSUExampleScenario.node[269].veinsmobility 	minSpeed 	0.25297519454244
scalar RSUExampleScenario.node[269].veinsmobility 	maxSpeed 	18.999625458946
scalar RSUExampleScenario.node[269].veinsmobility 	totalDistance 	3409.5520517627
scalar RSUExampleScenario.node[269].veinsmobility 	totalCO2Emission 	708.47316653165
scalar RSUExampleScenario.node[270].veinsmobility 	startTime 	1620.1
scalar RSUExampleScenario.node[270].veinsmobility 	totalTime 	227.2
scalar RSUExampleScenario.node[270].veinsmobility 	stopTime 	1847.4
scalar RSUExampleScenario.node[270].veinsmobility 	minSpeed 	0.25665677936235
scalar RSUExampleScenario.node[270].veinsmobility 	maxSpeed 	18.999982706024
scalar RSUExampleScenario.node[270].veinsmobility 	totalDistance 	3409.3387378263
scalar RSUExampleScenario.node[270].veinsmobility 	totalCO2Emission 	709.34610859483
scalar RSUExampleScenario.node[271].veinsmobility 	startTime 	1626.1
scalar RSUExampleScenario.node[271].veinsmobility 	totalTime 	226.9
scalar RSUExampleScenario.node[271].veinsmobility 	stopTime 	1853.1
scalar RSUExampleScenario.node[271].veinsmobility 	minSpeed 	0.25391302599362
scalar RSUExampleScenario.node[271].veinsmobility 	maxSpeed 	18.999738962613
scalar RSUExampleScenario.node[271].veinsmobility 	totalDistance 	3409.3756517882
scalar RSUExampleScenario.node[271].veinsmobility 	totalCO2Emission 	704.81004260089
scalar RSUExampleScenario.node[272].veinsmobility 	startTime 	1632.1
scalar RSUExampleScenario.node[272].veinsmobility 	totalTime 	226.8
scalar RSUExampleScenario.node[272].veinsmobility 	stopTime 	1859
scalar RSUExampleScenario.node[272].veinsmobility 	minSpeed 	0.25329879231332
scalar RSUExampleScenario.node[272].veinsmobility 	maxSpeed 	18.999785985136
scalar RSUExampleScenario.node[272].veinsmobility 	totalDistance 	3409.5124887588
scalar RSUExampleScenario.node[272].veinsmobility 	totalCO2Emission 	709.68939906692
scalar RSUExampleScenario.node[273].veinsmobility 	startTime 	1638.1
scalar RSUExampleScenario.node[273].veinsmobility 	totalTime 	226.9
scalar RSUExampleScenario.node[273].veinsmobility 	stopTime 	1865.1
scalar RSUExampleScenario.node[273].veinsmobility 	minSpeed 	0.25176903499756
scalar RSUExampleScenario.node[273].veinsmobility 	maxSpeed 	18.999930055321
scalar RSUExampleScenario.node[273].veinsmobility 	totalDistance 	3409.6141985732
scalar RSUExampleScenario.node[273].veinsmobility 	totalCO2Emission 	708.85596845561
scalar RSUExampleScenario.node[274].veinsmobility 	startTime 	1644.1
scalar RSUExampleScenario.node[274].veinsmobility 	totalTime 	227
scalar RSUExampleScenario.node[274].veinsmobility 	stopTime 	1871.2
scalar RSUExampleScenario.node[274].veinsmobility 	minSpeed 	0.25550495268847
scalar RSUExampleScenario.node[274].veinsmobility 	maxSpeed 	18.9995602506
scalar RSUExampleScenario.node[274].veinsmobility 	totalDistance 	3409.3221117093
scalar RSUExampleScenario.node[274].veinsmobility 	totalCO2Emission 	711.46880492825
scalar RSUExampleScenario.node[275].veinsmobility 	startTime 	1650.1
scalar RSUExampleScenario.node[275].veinsmobility 	totalTime 	227
scalar RSUExampleScenario.node[275].veinsmobility 	stopTime 	1877.2
scalar RSUExampleScenario.node[275].veinsmobility 	minSpeed 	0.25329379577143
scalar RSUExampleScenario.node[275].veinsmobility 	maxSpeed 	18.999793950792
scalar RSUExampleScenario.node[275].veinsmobility 	totalDistance 	3409.1644302056
scalar RSUExampleScenario.node[275].veinsmobility 	totalCO2Emission 	709.6853828243
scalar RSUExampleScenario.node[276].veinsmobility 	startTime 	1656.1
scalar RSUExampleScenario.node[276].veinsmobility 	totalTime 	227
scalar RSUExampleScenario.node[276].veinsmobility 	stopTime 	1883.2
scalar RSUExampleScenario.node[276].veinsmobility 	minSpeed 	0.25934105765959
scalar RSUExampleScenario.node[276].veinsmobility 	maxSpeed 	18.999178543328
scalar RSUExampleScenario.node[276].veinsmobility 	totalDistance 	3409.4382962595
scalar RSUExampleScenario.node[276].veinsmobility 	totalCO2Emission 	706.66152082747
scalar RSUExampleScenario.node[277].veinsmobility 	startTime 	1662.1
scalar RSUExampleScenario.node[277].veinsmobility 	totalTime 	226.6
scalar RSUExampleScenario.node[277].veinsmobility 	stopTime 	1888.8
scalar RSUExampleScenario.node[277].veinsmobility 	minSpeed 	0.25866865244089
scalar RSUExampleScenario.node[277].veinsmobility 	maxSpeed 	18.99993497411
scalar RSUExampleScenario.node[277].veinsmobility 	totalDistance 	3409.928012476
scalar RSUExampleScenario.node[277].veinsmobility 	totalCO2Emission 	704.49074555973
scalar RSUExampleScenario.node[278].veinsmobility 	startTime 	1668.1
scalar RSUExampleScenario.node[278].veinsmobility 	totalTime 	226.9
scalar RSUExampleScenario.node[278].veinsmobility 	stopTime 	1895.1
scalar RSUExampleScenario.node[278].veinsmobility 	minSpeed 	0.25751072273357
scalar RSUExampleScenario.node[278].veinsmobility 	maxSpeed 	18.99987957916
scalar RSUExampleScenario.node[278].veinsmobility 	totalDistance 	3409.5676868364
scalar RSUExampleScenario.node[278].veinsmobility 	totalCO2Emission 	706.17606679842
scalar RSUExampleScenario.node[279].veinsmobility 	startTime 	1674.1
scalar RSUExampleScenario.node[279].veinsmobility 	totalTime 	227.1
scalar RSUExampleScenario.node[279].veinsmobility 	stopTime 	1901.3
scalar RSUExampleScenario.node[279].veinsmobility 	minSpeed 	0.24939257595898
scalar RSUExampleScenario.node[279].veinsmobility 	maxSpeed 	18.999882084047
scalar RSUExampleScenario.node[279].veinsmobility 	totalDistance 	3409.4763393896
scalar RSUExampleScenario.node[279].veinsmobility 	totalCO2Emission 	710.30088991089
scalar RSUExampleScenario.node[280].veinsmobility 	startTime 	1680.1
scalar RSUExampleScenario.node[280].veinsmobility 	totalTime 	227
scalar RSUExampleScenario.node[280].veinsmobility 	stopTime 	1907.2
scalar RSUExampleScenario.node[280].veinsmobility 	minSpeed 	0.25698201295431
scalar RSUExampleScenario.node[280].veinsmobility 	maxSpeed 	18.999994926874
scalar RSUExampleScenario.node[280].veinsmobility 	totalDistance 	3409.5938209454
scalar RSUExampleScenario.node[280].veinsmobility 	totalCO2Emission 	706.67529401202
scalar RSUExampleScenario.node[281].veinsmobility 	startTime 	1686.1
scalar RSUExampleScenario.node[281].veinsmobility 	totalTime 	227.2
scalar RSUExampleScenario.node[281].veinsmobility 	stopTime 	1913.4
scalar RSUExampleScenario.node[281].veinsmobility 	minSpeed 	0.24970660387725
scalar RSUExampleScenario.node[281].veinsmobility 	maxSpeed 	18.999561425513
scalar RSUExampleScenario.node[281].veinsmobility 	totalDistance 	3409.1831947611
scalar RSUExampleScenario.node[281].veinsmobility 	totalCO2Emission 	706.00486746143
scalar RSUExampleScenario.node[282].veinsmobility 	startTime 	1692.1
scalar RSUExampleScenario.node[282].veinsmobility 	totalTime 	226.9
scalar RSUExampleScenario.node[282].veinsmobility 	stopTime 	1919.1
scalar RSUExampleScenario.node[282].veinsmobility 	minSpeed 	0.24770357702556
scalar RSUExampleScenario.node[282].veinsmobility 	maxSpeed 	18.999891789597
scalar RSUExampleScenario.node[282].veinsmobility 	totalDistance 	3409.457078587
scalar RSUExampleScenario.node[282].veinsmobility 	totalCO2Emission 	706.43053848974
scalar RSUExampleScenario.node[283].veinsmobility 	startTime 	1698.1
scalar RSUExampleScenario.node[283].veinsmobility 	totalTime 	226.9
scalar RSUExampleScenario.node[283].veinsmobility 	stopTime 	1925.1
scalar RSUExampleScenario.node[283].veinsmobility 	minSpeed 	0.25480696691922
scalar RSUExampleScenario.node[283].veinsmobility 	maxSpeed 	18.999776012441
scalar RSUExampleScenario.node[283].veinsmobility 	totalDistance 	3409.1612060683
scalar RSUExampleScenario.node[283].veinsmobility 	totalCO2Emission 	706.81285721915
scalar RSUExampleScenario.node[284].veinsmobility 	startTime 	1704.1
scalar RSUExampleScenario.node[284].veinsmobility 	totalTime 	226.9
scalar RSUExampleScenario.node[284].veinsmobility 	stopTime 	1931.1
scalar RSUExampleScenario.node[284].veinsmobility 	minSpeed 	0.25598445320665
scalar RSUExampleScenario.node[284].veinsmobility 	maxSpeed 	18.999970798418
scalar RSUExampleScenario.node[284].veinsmobility 	totalDistance 	3409.6480320676
scalar RSUExampleScenario.node[284].veinsmobility 	totalCO2Emission 	707.91183171874
scalar RSUExampleScenario.node[285].veinsmobility 	startTime 	1710.1
scalar RSUExampleScenario.node[285].veinsmobility 	totalTime 	226.9
scalar RSUExampleScenario.node[285].veinsmobility 	stopTime 	1937.1
scalar RSUExampleScenario.node[285].veinsmobility 	minSpeed 	0.25754318335722
scalar RSUExampleScenario.node[285].veinsmobility 	maxSpeed 	18.999986035533
scalar RSUExampleScenario.node[285].veinsmobility 	totalDistance 	3409.5345245681
scalar RSUExampleScenario.node[285].veinsmobility 	totalCO2Emission 	703.69007388794
scalar RSUExampleScenario.node[286].veinsmobility 	startTime 	1716.1
scalar RSUExampleScenario.node[286].veinsmobility 	totalTime 	227.2
scalar RSUExampleScenario.node[286].veinsmobility 	stopTime 	1943.4
scalar RSUExampleScenario.node[286].veinsmobility 	minSpeed 	0.25182698321878
scalar RSUExampleScenario.node[286].veinsmobility 	maxSpeed 	18.99961786492
scalar RSUExampleScenario.node[286].veinsmobility 	totalDistance 	3409.3665729997
scalar RSUExampleScenario.node[286].veinsmobility 	totalCO2Emission 	706.91758848764
scalar RSUExampleScenario.node[287].veinsmobility 	startTime 	1722.1
scalar RSUExampleScenario.node[287].veinsmobility 	totalTime 	227
scalar RSUExampleScenario.node[287].veinsmobility 	stopTime 	1949.2
scalar RSUExampleScenario.node[287].veinsmobility 	minSpeed 	0.25241774256434
scalar RSUExampleScenario.node[287].veinsmobility 	maxSpeed 	18.999751880534
scalar RSUExampleScenario.node[287].veinsmobility 	totalDistance 	3409.7181877658
scalar RSUExampleScenario.node[287].veinsmobility 	totalCO2Emission 	707.48577016562
scalar RSUExampleScenario.node[288].veinsmobility 	startTime 	1728.1
scalar RSUExampleScenario.node[288].veinsmobility 	totalTime 	227.2
scalar RSUExampleScenario.node[288].veinsmobility 	stopTime 	1955.4
scalar RSUExampleScenario.node[288].veinsmobility 	minSpeed 	0.25485556787252
scalar RSUExampleScenario.node[288].veinsmobility 	maxSpeed 	18.999759480311
scalar RSUExampleScenario.node[288].veinsmobility 	totalDistance 	3409.7817626481
scalar RSUExampleScenario.node[288].veinsmobility 	totalCO2Emission 	709.74199579176
scalar RSUExampleScenario.node[289].veinsmobility 	startTime 	1734.1
scalar RSUExampleScenario.node[289].veinsmobility 	totalTime 	227.1
scalar RSUExampleScenario.node[289].veinsmobility 	stopTime 	1961.3
scalar RSUExampleScenario.node[289].veinsmobility 	minSpeed 	0.25455794684798
scalar RSUExampleScenario.node[289].veinsmobility 	maxSpeed 	18.999857585838
scalar RSUExampleScenario.node[289].veinsmobility 	totalDistance 	3410.0662107427
scalar RSUExampleScenario.node[289].veinsmobility 	totalCO2Emission 	704.37582329149
scalar RSUExampleScenario.node[290].veinsmobility 	startTime 	1740.1
scalar RSUExampleScenario.node[290].veinsmobility 	totalTime 	227
scalar RSUExampleScenario.node[290].veinsmobility 	stopTime 	1967.2
scalar RSUExampleScenario.node[290].veinsmobility 	minSpeed 	0.25530773071107
scalar RSUExampleScenario.node[290].veinsmobility 	maxSpeed 	18.999774588968
scalar RSUExampleScenario.node[290].veinsmobility 	totalDistance 	3409.5307106544
scalar RSUExampleScenario.node[290].veinsmobility 	totalCO2Emission 	708.8222035074
scalar RSUExampleScenario.node[291].veinsmobility 	startTime 	1746.1
scalar RSUExampleScenario.node[291].veinsmobility 	totalTime 	226.8
scalar RSUExampleScenario.node[291].veinsmobility 	stopTime 	1973
scalar RSUExampleScenario.node[291].veinsmobility 	minSpeed 	0.25843534227647
scalar RSUExampleScenario.node[291].veinsmobility 	maxSpeed 	18.999342877958
scalar RSUExampleScenario.node[291].veinsmobility 	totalDistance 	3409.6413881543
scalar RSUExampleScenario.node[291].veinsmobility 	totalCO2Emission 	704.7697059425
scalar RSUExampleScenario.node[292].veinsmobility 	startTime 	1752.1
scalar RSUExampleScenario.node[292].veinsmobility 	totalTime 	226.8
scalar RSUExampleScenario.node[292].veinsmobility 	stopTime 	1979
scalar RSUExampleScenario.node[292].veinsmobility 	minSpeed 	0.25416831343831
scalar RSUExampleScenario.node[292].veinsmobility 	maxSpeed 	18.999852114597
scalar RSUExampleScenario.node[292].veinsmobility 	totalDistance 	3409.3555083711
scalar RSUExampleScenario.node[292].veinsmobility 	totalCO2Emission 	708.4981242369
scalar RSUExampleScenario.node[293].veinsmobility 	startTime 	1758.1
scalar RSUExampleScenario.node[293].veinsmobility 	totalTime 	226.9
scalar RSUExampleScenario.node[293].veinsmobility 	stopTime 	1985.1
scalar RSUExampleScenario.node[293].veinsmobility 	minSpeed 	0.25283724647854
scalar RSUExampleScenario.node[293].veinsmobility 	maxSpeed 	18.999477411518
scalar RSUExampleScenario.node[293].veinsmobility 	totalDistance 	3409.5812741671
scalar RSUExampleScenario.node[293].veinsmobility 	totalCO2Emission 	709.45577744424
scalar RSUExampleScenario.node[294].veinsmobility 	startTime 	1764.1
scalar RSUExampleScenario.node[294].veinsmobility 	totalTime 	226.6
scalar RSUExampleScenario.node[294].veinsmobility 	stopTime 	1990.8
scalar RSUExampleScenario.node[294].veinsmobility 	minSpeed 	0.25920169109874
scalar RSUExampleScenario.node[294].veinsmobility 	maxSpeed 	18.999516670303
scalar RSUExampleScenario.node[294].veinsmobility 	totalDistance 	3409.7452879894
scalar RSUExampleScenario.node[294].veinsmobility 	totalCO2Emission 	707.67654708738
scalar RSUExampleScenario.node[295].veinsmobility 	startTime 	1770.1
scalar RSUExampleScenario.node[295].veinsmobility 	totalTime 	227
scalar RSUExampleScenario.node[295].veinsmobility 	stopTime 	1997.2
scalar RSUExampleScenario.node[295].veinsmobility 	minSpeed 	0.25869569865195
scalar RSUExampleScenario.node[295].veinsmobility 	maxSpeed 	18.999761973394
scalar RSUExampleScenario.node[295].veinsmobility 	totalDistance 	3409.3553012585
scalar RSUExampleScenario.node[295].veinsmobility 	totalCO2Emission 	704.90041042238
scalar RSUExampleScenario.node[296].veinsmobility 	startTime 	1776.1
scalar RSUExampleScenario.node[296].veinsmobility 	totalTime 	223.8
scalar RSUExampleScenario.node[296].veinsmobility 	stopTime 	2000
scalar RSUExampleScenario.node[296].veinsmobility 	minSpeed 	0.24757808198198
scalar RSUExampleScenario.node[296].veinsmobility 	maxSpeed 	18.999847651068
scalar RSUExampleScenario.node[296].veinsmobility 	totalDistance 	3389.3674242456
scalar RSUExampleScenario.node[296].veinsmobility 	totalCO2Emission 	692.41171001432
scalar RSUExampleScenario.node[297].veinsmobility 	startTime 	1782.1
scalar RSUExampleScenario.node[297].veinsmobility 	totalTime 	217.8
scalar RSUExampleScenario.node[297].veinsmobility 	stopTime 	2000
scalar RSUExampleScenario.node[297].veinsmobility 	minSpeed 	0.25047039456153
scalar RSUExampleScenario.node[297].veinsmobility 	maxSpeed 	18.999954370863
scalar RSUExampleScenario.node[297].veinsmobility 	totalDistance 	3319.402119469
scalar RSUExampleScenario.node[297].veinsmobility 	totalCO2Emission 	680.96380676964
scalar RSUExampleScenario.node[298].veinsmobility 	startTime 	1788.1
scalar RSUExampleScenario.node[298].veinsmobility 	totalTime 	211.8
scalar RSUExampleScenario.node[298].veinsmobility 	stopTime 	2000
scalar RSUExampleScenario.node[298].veinsmobility 	minSpeed 	0.25133644462377
scalar RSUExampleScenario.node[298].veinsmobility 	maxSpeed 	18.999834672913
scalar RSUExampleScenario.node[298].veinsmobility 	totalDistance 	3242.4855412141
scalar RSUExampleScenario.node[298].veinsmobility 	totalCO2Emission 	671.52622520758
scalar RSUExampleScenario.node[299].veinsmobility 	startTime 	1794.1
scalar RSUExampleScenario.node[299].veinsmobility 	totalTime 	205.8
scalar RSUExampleScenario.node[299].veinsmobility 	stopTime 	2000
scalar RSUExampleScenario.node[299].veinsmobility 	minSpeed 	0.24738051344221
scalar RSUExampleScenario.node[299].veinsmobility 	maxSpeed 	18.999601462942
scalar RSUExampleScenario.node[299].veinsmobility 	totalDistance 	3157.6530693348
scalar RSUExampleScenario.node[299].veinsmobility 	totalCO2Emission 	655.87367692202
