version 2
run statistic6-2-20150318-18:23:21-10276
attr c 3
attr configname statistic6
attr datetime 20150318-18:23:21
attr experiment statistic6
attr inifile omnetpp.ini
attr iterationvars "$p=1/4, $c=3"
attr iterationvars2 "$p=1/4, $c=3, $repetition=2"
attr measurement "$p=1/4, $c=3"
attr network RSUExampleScenario
attr p 1/4
attr processid 10276
attr repetition 2
attr replication #2
attr resultdir results
attr runnumber 2
attr seedset 2

scalar . 	c 	3
scalar RSUExampleScenario.rsu[0].appl 	NumberofCH 	27
scalar RSUExampleScenario.rsu[0].appl 	NumberofON 	61
scalar RSUExampleScenario.rsu[0].appl 	NumberofFN 	12
scalar RSUExampleScenario.rsu[0].appl 	meanClusterNodes 	2.2592592592593
scalar RSUExampleScenario.rsu[0].appl 	varClusterNodes 	1.0747124539664
scalar RSUExampleScenario.rsu[0].appl 	sumCHutility 	909.89785757055
scalar RSUExampleScenario.rsu[0].appl 	meanCHutility 	33.699920650761
scalar RSUExampleScenario.rsu[0].appl 	varCHutility 	14.185471168156
scalar RSUExampleScenario.rsu[0].appl 	sumDiffCHutility 	12.119266491807
scalar RSUExampleScenario.rsu[0].appl 	meanDiffCHutility 	0.44886172191877
scalar RSUExampleScenario.rsu[0].appl 	varDiffCHutility 	14.252690695067
scalar RSUExampleScenario.rsu[0].appl 	expectedCHutility 	922.01712406236
scalar RSUExampleScenario.rsu[0].appl 	meanExpectedCHutility 	34.14878237268
scalar RSUExampleScenario.rsu[0].appl 	varExpectedCHutility 	0.73052403907473
