version 2
run statisticLeach-692-20150322-03:23:49-10280
attr c 13
attr configname statisticLeach
attr datetime 20150322-03:23:49
attr experiment statisticLeach
attr inifile omnetpp.ini
attr iterationvars "$p=1/5, $c=13"
attr iterationvars2 "$p=1/5, $c=13, $repetition=2"
attr measurement "$p=1/5, $c=13"
attr network RSUExampleScenario
attr p 1/5
attr processid 10280
attr repetition 2
attr replication #2
attr resultdir results
attr runnumber 692
attr seedset 692

scalar . 	c 	13
scalar RSUExampleScenario.node[0].appl 	meanClusterNodes 	0
scalar RSUExampleScenario.node[0].appl 	meanClusterHeadUtility 	0
scalar RSUExampleScenario.node[0].appl 	NumberofCH 	0.16216216216216
scalar RSUExampleScenario.node[0].appl 	NumberofON 	0
scalar RSUExampleScenario.node[0].appl 	NumberofFN 	0.83783783783784
scalar RSUExampleScenario.node[0].veinsmobility 	startTime 	0.1
scalar RSUExampleScenario.node[0].veinsmobility 	totalTime 	449.9
scalar RSUExampleScenario.node[0].veinsmobility 	stopTime 	450
scalar RSUExampleScenario.node[0].veinsmobility 	minSpeed 	0
scalar RSUExampleScenario.node[0].veinsmobility 	maxSpeed 	13.999976903773
scalar RSUExampleScenario.node[0].veinsmobility 	totalDistance 	3132.6017061426
scalar RSUExampleScenario.node[0].veinsmobility 	totalCO2Emission 	843.51701404156
scalar RSUExampleScenario.node[1].appl 	meanClusterNodes 	0
scalar RSUExampleScenario.node[1].appl 	meanClusterHeadUtility 	0
scalar RSUExampleScenario.node[1].appl 	NumberofCH 	0.16216216216216
scalar RSUExampleScenario.node[1].appl 	NumberofON 	0
scalar RSUExampleScenario.node[1].appl 	NumberofFN 	0.83783783783784
scalar RSUExampleScenario.node[1].veinsmobility 	startTime 	2.5
scalar RSUExampleScenario.node[1].veinsmobility 	totalTime 	447.5
scalar RSUExampleScenario.node[1].veinsmobility 	stopTime 	450
scalar RSUExampleScenario.node[1].veinsmobility 	minSpeed 	0
scalar RSUExampleScenario.node[1].veinsmobility 	maxSpeed 	13.999986503234
scalar RSUExampleScenario.node[1].veinsmobility 	totalDistance 	3082.3242515593
scalar RSUExampleScenario.node[1].veinsmobility 	totalCO2Emission 	829.76276464022
scalar RSUExampleScenario.node[10].appl 	meanClusterNodes 	0
scalar RSUExampleScenario.node[10].appl 	meanClusterHeadUtility 	0
scalar RSUExampleScenario.node[10].appl 	NumberofCH 	0.21621621621622
scalar RSUExampleScenario.node[10].appl 	NumberofON 	0
scalar RSUExampleScenario.node[10].appl 	NumberofFN 	0.78378378378378
scalar RSUExampleScenario.node[10].veinsmobility 	startTime 	24.2
scalar RSUExampleScenario.node[10].veinsmobility 	totalTime 	425.8
scalar RSUExampleScenario.node[10].veinsmobility 	stopTime 	450
scalar RSUExampleScenario.node[10].veinsmobility 	minSpeed 	0
scalar RSUExampleScenario.node[10].veinsmobility 	maxSpeed 	13.999965415802
scalar RSUExampleScenario.node[10].veinsmobility 	totalDistance 	2790.209901122
scalar RSUExampleScenario.node[10].veinsmobility 	totalCO2Emission 	756.9528321492
scalar RSUExampleScenario.node[11].appl 	meanClusterNodes 	0
scalar RSUExampleScenario.node[11].appl 	meanClusterHeadUtility 	0
scalar RSUExampleScenario.node[11].appl 	NumberofCH 	0.21621621621622
scalar RSUExampleScenario.node[11].appl 	NumberofON 	0
scalar RSUExampleScenario.node[11].appl 	NumberofFN 	0.78378378378378
scalar RSUExampleScenario.node[11].veinsmobility 	startTime 	26.6
scalar RSUExampleScenario.node[11].veinsmobility 	totalTime 	423.4
scalar RSUExampleScenario.node[11].veinsmobility 	stopTime 	450
scalar RSUExampleScenario.node[11].veinsmobility 	minSpeed 	0
scalar RSUExampleScenario.node[11].veinsmobility 	maxSpeed 	13.999957366576
scalar RSUExampleScenario.node[11].veinsmobility 	totalDistance 	2758.5314797954
scalar RSUExampleScenario.node[11].veinsmobility 	totalCO2Emission 	755.94299756869
scalar RSUExampleScenario.node[12].appl 	meanClusterNodes 	0
scalar RSUExampleScenario.node[12].appl 	meanClusterHeadUtility 	0
scalar RSUExampleScenario.node[12].appl 	NumberofCH 	0.24324324324324
scalar RSUExampleScenario.node[12].appl 	NumberofON 	0
scalar RSUExampleScenario.node[12].appl 	NumberofFN 	0.75675675675676
scalar RSUExampleScenario.node[12].veinsmobility 	startTime 	29
scalar RSUExampleScenario.node[12].veinsmobility 	totalTime 	421
scalar RSUExampleScenario.node[12].veinsmobility 	stopTime 	450
scalar RSUExampleScenario.node[12].veinsmobility 	minSpeed 	0
scalar RSUExampleScenario.node[12].veinsmobility 	maxSpeed 	13.999845103805
scalar RSUExampleScenario.node[12].veinsmobility 	totalDistance 	2717.7661056231
scalar RSUExampleScenario.node[12].veinsmobility 	totalCO2Emission 	746.81704790637
scalar RSUExampleScenario.node[13].appl 	meanClusterNodes 	0
scalar RSUExampleScenario.node[13].appl 	meanClusterHeadUtility 	0
scalar RSUExampleScenario.node[13].appl 	NumberofCH 	0.16216216216216
scalar RSUExampleScenario.node[13].appl 	NumberofON 	0
scalar RSUExampleScenario.node[13].appl 	NumberofFN 	0.83783783783784
scalar RSUExampleScenario.node[13].veinsmobility 	startTime 	31.4
scalar RSUExampleScenario.node[13].veinsmobility 	totalTime 	418.6
scalar RSUExampleScenario.node[13].veinsmobility 	stopTime 	450
scalar RSUExampleScenario.node[13].veinsmobility 	minSpeed 	0
scalar RSUExampleScenario.node[13].veinsmobility 	maxSpeed 	13.999875873118
scalar RSUExampleScenario.node[13].veinsmobility 	totalDistance 	2684.8054573061
scalar RSUExampleScenario.node[13].veinsmobility 	totalCO2Emission 	742.50797131857
scalar RSUExampleScenario.node[14].appl 	meanClusterNodes 	0
scalar RSUExampleScenario.node[14].appl 	meanClusterHeadUtility 	0
scalar RSUExampleScenario.node[14].appl 	NumberofCH 	0.16216216216216
scalar RSUExampleScenario.node[14].appl 	NumberofON 	0
scalar RSUExampleScenario.node[14].appl 	NumberofFN 	0.83783783783784
scalar RSUExampleScenario.node[14].veinsmobility 	startTime 	33.8
scalar RSUExampleScenario.node[14].veinsmobility 	totalTime 	416.2
scalar RSUExampleScenario.node[14].veinsmobility 	stopTime 	450
scalar RSUExampleScenario.node[14].veinsmobility 	minSpeed 	0
scalar RSUExampleScenario.node[14].veinsmobility 	maxSpeed 	13.999965424307
scalar RSUExampleScenario.node[14].veinsmobility 	totalDistance 	2647.7143479371
scalar RSUExampleScenario.node[14].veinsmobility 	totalCO2Emission 	736.49446565081
scalar RSUExampleScenario.node[15].appl 	meanClusterNodes 	0
scalar RSUExampleScenario.node[15].appl 	meanClusterHeadUtility 	0
scalar RSUExampleScenario.node[15].appl 	NumberofCH 	0.18918918918919
scalar RSUExampleScenario.node[15].appl 	NumberofON 	0
scalar RSUExampleScenario.node[15].appl 	NumberofFN 	0.81081081081081
scalar RSUExampleScenario.node[15].veinsmobility 	startTime 	36.2
scalar RSUExampleScenario.node[15].veinsmobility 	totalTime 	413.8
scalar RSUExampleScenario.node[15].veinsmobility 	stopTime 	450
scalar RSUExampleScenario.node[15].veinsmobility 	minSpeed 	0
scalar RSUExampleScenario.node[15].veinsmobility 	maxSpeed 	13.999836836469
scalar RSUExampleScenario.node[15].veinsmobility 	totalDistance 	2618.2053093568
scalar RSUExampleScenario.node[15].veinsmobility 	totalCO2Emission 	728.60964705616
scalar RSUExampleScenario.node[16].appl 	meanClusterNodes 	0
scalar RSUExampleScenario.node[16].appl 	meanClusterHeadUtility 	0
scalar RSUExampleScenario.node[16].appl 	NumberofCH 	0.18918918918919
scalar RSUExampleScenario.node[16].appl 	NumberofON 	0
scalar RSUExampleScenario.node[16].appl 	NumberofFN 	0.81081081081081
scalar RSUExampleScenario.node[16].veinsmobility 	startTime 	38.6
scalar RSUExampleScenario.node[16].veinsmobility 	totalTime 	411.4
scalar RSUExampleScenario.node[16].veinsmobility 	stopTime 	450
scalar RSUExampleScenario.node[16].veinsmobility 	minSpeed 	0
scalar RSUExampleScenario.node[16].veinsmobility 	maxSpeed 	13.999838112204
scalar RSUExampleScenario.node[16].veinsmobility 	totalDistance 	2578.1707705746
scalar RSUExampleScenario.node[16].veinsmobility 	totalCO2Emission 	722.94749646526
scalar RSUExampleScenario.node[17].appl 	meanClusterNodes 	0
scalar RSUExampleScenario.node[17].appl 	meanClusterHeadUtility 	0
scalar RSUExampleScenario.node[17].appl 	NumberofCH 	0.21621621621622
scalar RSUExampleScenario.node[17].appl 	NumberofON 	0
scalar RSUExampleScenario.node[17].appl 	NumberofFN 	0.78378378378378
scalar RSUExampleScenario.node[17].veinsmobility 	startTime 	41
scalar RSUExampleScenario.node[17].veinsmobility 	totalTime 	409
scalar RSUExampleScenario.node[17].veinsmobility 	stopTime 	450
scalar RSUExampleScenario.node[17].veinsmobility 	minSpeed 	0
scalar RSUExampleScenario.node[17].veinsmobility 	maxSpeed 	13.9999754046
scalar RSUExampleScenario.node[17].veinsmobility 	totalDistance 	2542.9023453715
scalar RSUExampleScenario.node[17].veinsmobility 	totalCO2Emission 	717.33530772197
scalar RSUExampleScenario.node[18].appl 	meanClusterNodes 	0
scalar RSUExampleScenario.node[18].appl 	meanClusterHeadUtility 	0
scalar RSUExampleScenario.node[18].appl 	NumberofCH 	0.21621621621622
scalar RSUExampleScenario.node[18].appl 	NumberofON 	0
scalar RSUExampleScenario.node[18].appl 	NumberofFN 	0.78378378378378
scalar RSUExampleScenario.node[18].veinsmobility 	startTime 	43.4
scalar RSUExampleScenario.node[18].veinsmobility 	totalTime 	406.6
scalar RSUExampleScenario.node[18].veinsmobility 	stopTime 	450
scalar RSUExampleScenario.node[18].veinsmobility 	minSpeed 	0
scalar RSUExampleScenario.node[18].veinsmobility 	maxSpeed 	13.999900019008
scalar RSUExampleScenario.node[18].veinsmobility 	totalDistance 	2503.7732890631
scalar RSUExampleScenario.node[18].veinsmobility 	totalCO2Emission 	715.30563375963
scalar RSUExampleScenario.node[19].appl 	meanClusterNodes 	0
scalar RSUExampleScenario.node[19].appl 	meanClusterHeadUtility 	0
scalar RSUExampleScenario.node[19].appl 	NumberofCH 	0.18918918918919
scalar RSUExampleScenario.node[19].appl 	NumberofON 	0
scalar RSUExampleScenario.node[19].appl 	NumberofFN 	0.81081081081081
scalar RSUExampleScenario.node[19].veinsmobility 	startTime 	45.8
scalar RSUExampleScenario.node[19].veinsmobility 	totalTime 	404.2
scalar RSUExampleScenario.node[19].veinsmobility 	stopTime 	450
scalar RSUExampleScenario.node[19].veinsmobility 	minSpeed 	0
scalar RSUExampleScenario.node[19].veinsmobility 	maxSpeed 	13.999936253871
scalar RSUExampleScenario.node[19].veinsmobility 	totalDistance 	2474.3588586744
scalar RSUExampleScenario.node[19].veinsmobility 	totalCO2Emission 	706.00190468154
scalar RSUExampleScenario.node[2].appl 	meanClusterNodes 	0
scalar RSUExampleScenario.node[2].appl 	meanClusterHeadUtility 	0
scalar RSUExampleScenario.node[2].appl 	NumberofCH 	0.21621621621622
scalar RSUExampleScenario.node[2].appl 	NumberofON 	0
scalar RSUExampleScenario.node[2].appl 	NumberofFN 	0.78378378378378
scalar RSUExampleScenario.node[2].veinsmobility 	startTime 	4.9
scalar RSUExampleScenario.node[2].veinsmobility 	totalTime 	445.1
scalar RSUExampleScenario.node[2].veinsmobility 	stopTime 	450
scalar RSUExampleScenario.node[2].veinsmobility 	minSpeed 	0
scalar RSUExampleScenario.node[2].veinsmobility 	maxSpeed 	13.999982936424
scalar RSUExampleScenario.node[2].veinsmobility 	totalDistance 	3036.6612406019
scalar RSUExampleScenario.node[2].veinsmobility 	totalCO2Emission 	823.81478952361
scalar RSUExampleScenario.node[20].appl 	meanClusterNodes 	0
scalar RSUExampleScenario.node[20].appl 	meanClusterHeadUtility 	0
scalar RSUExampleScenario.node[20].appl 	NumberofCH 	0.21621621621622
scalar RSUExampleScenario.node[20].appl 	NumberofON 	0
scalar RSUExampleScenario.node[20].appl 	NumberofFN 	0.78378378378378
scalar RSUExampleScenario.node[20].veinsmobility 	startTime 	48.3
scalar RSUExampleScenario.node[20].veinsmobility 	totalTime 	401.7
scalar RSUExampleScenario.node[20].veinsmobility 	stopTime 	450
scalar RSUExampleScenario.node[20].veinsmobility 	minSpeed 	0
scalar RSUExampleScenario.node[20].veinsmobility 	maxSpeed 	13.999960488083
scalar RSUExampleScenario.node[20].veinsmobility 	totalDistance 	2436.9787940477
scalar RSUExampleScenario.node[20].veinsmobility 	totalCO2Emission 	698.09201397625
scalar RSUExampleScenario.node[21].appl 	meanClusterNodes 	0
scalar RSUExampleScenario.node[21].appl 	meanClusterHeadUtility 	0
scalar RSUExampleScenario.node[21].appl 	NumberofCH 	0.21621621621622
scalar RSUExampleScenario.node[21].appl 	NumberofON 	0
scalar RSUExampleScenario.node[21].appl 	NumberofFN 	0.78378378378378
scalar RSUExampleScenario.node[21].veinsmobility 	startTime 	50.7
scalar RSUExampleScenario.node[21].veinsmobility 	totalTime 	399.3
scalar RSUExampleScenario.node[21].veinsmobility 	stopTime 	450
scalar RSUExampleScenario.node[21].veinsmobility 	minSpeed 	0
scalar RSUExampleScenario.node[21].veinsmobility 	maxSpeed 	13.999986054571
scalar RSUExampleScenario.node[21].veinsmobility 	totalDistance 	2409.5399617461
scalar RSUExampleScenario.node[21].veinsmobility 	totalCO2Emission 	693.38229324766
scalar RSUExampleScenario.node[22].appl 	meanClusterNodes 	0
scalar RSUExampleScenario.node[22].appl 	meanClusterHeadUtility 	0
scalar RSUExampleScenario.node[22].appl 	NumberofCH 	0.21621621621622
scalar RSUExampleScenario.node[22].appl 	NumberofON 	0
scalar RSUExampleScenario.node[22].appl 	NumberofFN 	0.78378378378378
scalar RSUExampleScenario.node[22].veinsmobility 	startTime 	53.1
scalar RSUExampleScenario.node[22].veinsmobility 	totalTime 	396.9
scalar RSUExampleScenario.node[22].veinsmobility 	stopTime 	450
scalar RSUExampleScenario.node[22].veinsmobility 	minSpeed 	0
scalar RSUExampleScenario.node[22].veinsmobility 	maxSpeed 	13.999889017746
scalar RSUExampleScenario.node[22].veinsmobility 	totalDistance 	2368.242738906
scalar RSUExampleScenario.node[22].veinsmobility 	totalCO2Emission 	687.65777601132
scalar RSUExampleScenario.node[23].appl 	meanClusterNodes 	0
scalar RSUExampleScenario.node[23].appl 	meanClusterHeadUtility 	0
scalar RSUExampleScenario.node[23].appl 	NumberofCH 	0.16216216216216
scalar RSUExampleScenario.node[23].appl 	NumberofON 	0
scalar RSUExampleScenario.node[23].appl 	NumberofFN 	0.83783783783784
scalar RSUExampleScenario.node[23].veinsmobility 	startTime 	55.5
scalar RSUExampleScenario.node[23].veinsmobility 	totalTime 	394.5
scalar RSUExampleScenario.node[23].veinsmobility 	stopTime 	450
scalar RSUExampleScenario.node[23].veinsmobility 	minSpeed 	0
scalar RSUExampleScenario.node[23].veinsmobility 	maxSpeed 	13.999976764419
scalar RSUExampleScenario.node[23].veinsmobility 	totalDistance 	2340.7003825765
scalar RSUExampleScenario.node[23].veinsmobility 	totalCO2Emission 	687.4448801454
scalar RSUExampleScenario.node[24].appl 	meanClusterNodes 	0
scalar RSUExampleScenario.node[24].appl 	meanClusterHeadUtility 	0
scalar RSUExampleScenario.node[24].appl 	NumberofCH 	0.24324324324324
scalar RSUExampleScenario.node[24].appl 	NumberofON 	0
scalar RSUExampleScenario.node[24].appl 	NumberofFN 	0.75675675675676
scalar RSUExampleScenario.node[24].veinsmobility 	startTime 	57.9
scalar RSUExampleScenario.node[24].veinsmobility 	totalTime 	392.1
scalar RSUExampleScenario.node[24].veinsmobility 	stopTime 	450
scalar RSUExampleScenario.node[24].veinsmobility 	minSpeed 	0
scalar RSUExampleScenario.node[24].veinsmobility 	maxSpeed 	13.999602895072
scalar RSUExampleScenario.node[24].veinsmobility 	totalDistance 	2300.2896670601
scalar RSUExampleScenario.node[24].veinsmobility 	totalCO2Emission 	678.01798133243
scalar RSUExampleScenario.node[25].appl 	meanClusterNodes 	0
scalar RSUExampleScenario.node[25].appl 	meanClusterHeadUtility 	0
scalar RSUExampleScenario.node[25].appl 	NumberofCH 	0.21621621621622
scalar RSUExampleScenario.node[25].appl 	NumberofON 	0
scalar RSUExampleScenario.node[25].appl 	NumberofFN 	0.78378378378378
scalar RSUExampleScenario.node[25].veinsmobility 	startTime 	60.3
scalar RSUExampleScenario.node[25].veinsmobility 	totalTime 	389.7
scalar RSUExampleScenario.node[25].veinsmobility 	stopTime 	450
scalar RSUExampleScenario.node[25].veinsmobility 	minSpeed 	0
scalar RSUExampleScenario.node[25].veinsmobility 	maxSpeed 	13.999961966069
scalar RSUExampleScenario.node[25].veinsmobility 	totalDistance 	2271.1159836213
scalar RSUExampleScenario.node[25].veinsmobility 	totalCO2Emission 	670.74853605335
scalar RSUExampleScenario.node[26].appl 	meanClusterNodes 	0
scalar RSUExampleScenario.node[26].appl 	meanClusterHeadUtility 	0
scalar RSUExampleScenario.node[26].appl 	NumberofCH 	0.21621621621622
scalar RSUExampleScenario.node[26].appl 	NumberofON 	0
scalar RSUExampleScenario.node[26].appl 	NumberofFN 	0.78378378378378
scalar RSUExampleScenario.node[26].veinsmobility 	startTime 	62.7
scalar RSUExampleScenario.node[26].veinsmobility 	totalTime 	387.3
scalar RSUExampleScenario.node[26].veinsmobility 	stopTime 	450
scalar RSUExampleScenario.node[26].veinsmobility 	minSpeed 	0
scalar RSUExampleScenario.node[26].veinsmobility 	maxSpeed 	13.999971780584
scalar RSUExampleScenario.node[26].veinsmobility 	totalDistance 	2234.2421329075
scalar RSUExampleScenario.node[26].veinsmobility 	totalCO2Emission 	667.14607250522
scalar RSUExampleScenario.node[27].appl 	meanClusterNodes 	0
scalar RSUExampleScenario.node[27].appl 	meanClusterHeadUtility 	0
scalar RSUExampleScenario.node[27].appl 	NumberofCH 	0.21621621621622
scalar RSUExampleScenario.node[27].appl 	NumberofON 	0
scalar RSUExampleScenario.node[27].appl 	NumberofFN 	0.78378378378378
scalar RSUExampleScenario.node[27].veinsmobility 	startTime 	65.1
scalar RSUExampleScenario.node[27].veinsmobility 	totalTime 	384.9
scalar RSUExampleScenario.node[27].veinsmobility 	stopTime 	450
scalar RSUExampleScenario.node[27].veinsmobility 	minSpeed 	0
scalar RSUExampleScenario.node[27].veinsmobility 	maxSpeed 	13.999919928713
scalar RSUExampleScenario.node[27].veinsmobility 	totalDistance 	2205.145514513
scalar RSUExampleScenario.node[27].veinsmobility 	totalCO2Emission 	659.77034182381
scalar RSUExampleScenario.node[28].appl 	meanClusterNodes 	0
scalar RSUExampleScenario.node[28].appl 	meanClusterHeadUtility 	0
scalar RSUExampleScenario.node[28].appl 	NumberofCH 	0.21621621621622
scalar RSUExampleScenario.node[28].appl 	NumberofON 	0
scalar RSUExampleScenario.node[28].appl 	NumberofFN 	0.78378378378378
scalar RSUExampleScenario.node[28].veinsmobility 	startTime 	67.5
scalar RSUExampleScenario.node[28].veinsmobility 	totalTime 	382.5
scalar RSUExampleScenario.node[28].veinsmobility 	stopTime 	450
scalar RSUExampleScenario.node[28].veinsmobility 	minSpeed 	0
scalar RSUExampleScenario.node[28].veinsmobility 	maxSpeed 	13.999843420663
scalar RSUExampleScenario.node[28].veinsmobility 	totalDistance 	2167.1578588782
scalar RSUExampleScenario.node[28].veinsmobility 	totalCO2Emission 	655.47090673812
scalar RSUExampleScenario.node[29].appl 	meanClusterNodes 	0
scalar RSUExampleScenario.node[29].appl 	meanClusterHeadUtility 	0
scalar RSUExampleScenario.node[29].appl 	NumberofCH 	0.21621621621622
scalar RSUExampleScenario.node[29].appl 	NumberofON 	0
scalar RSUExampleScenario.node[29].appl 	NumberofFN 	0.78378378378378
scalar RSUExampleScenario.node[29].veinsmobility 	startTime 	69.9
scalar RSUExampleScenario.node[29].veinsmobility 	totalTime 	380.1
scalar RSUExampleScenario.node[29].veinsmobility 	stopTime 	450
scalar RSUExampleScenario.node[29].veinsmobility 	minSpeed 	0
scalar RSUExampleScenario.node[29].veinsmobility 	maxSpeed 	13.999991644099
scalar RSUExampleScenario.node[29].veinsmobility 	totalDistance 	2135.7959048156
scalar RSUExampleScenario.node[29].veinsmobility 	totalCO2Emission 	649.64376496205
scalar RSUExampleScenario.node[3].appl 	meanClusterNodes 	0
scalar RSUExampleScenario.node[3].appl 	meanClusterHeadUtility 	0
scalar RSUExampleScenario.node[3].appl 	NumberofCH 	0.27027027027027
scalar RSUExampleScenario.node[3].appl 	NumberofON 	0
scalar RSUExampleScenario.node[3].appl 	NumberofFN 	0.72972972972973
scalar RSUExampleScenario.node[3].veinsmobility 	startTime 	7.3
scalar RSUExampleScenario.node[3].veinsmobility 	totalTime 	442.7
scalar RSUExampleScenario.node[3].veinsmobility 	stopTime 	450
scalar RSUExampleScenario.node[3].veinsmobility 	minSpeed 	0
scalar RSUExampleScenario.node[3].veinsmobility 	maxSpeed 	13.9999548234
scalar RSUExampleScenario.node[3].veinsmobility 	totalDistance 	3000.4236141281
scalar RSUExampleScenario.node[3].veinsmobility 	totalCO2Emission 	811.08868653023
scalar RSUExampleScenario.node[30].appl 	meanClusterNodes 	0
scalar RSUExampleScenario.node[30].appl 	meanClusterHeadUtility 	0
scalar RSUExampleScenario.node[30].appl 	NumberofCH 	0.21621621621622
scalar RSUExampleScenario.node[30].appl 	NumberofON 	0
scalar RSUExampleScenario.node[30].appl 	NumberofFN 	0.78378378378378
scalar RSUExampleScenario.node[30].veinsmobility 	startTime 	72.4
scalar RSUExampleScenario.node[30].veinsmobility 	totalTime 	377.6
scalar RSUExampleScenario.node[30].veinsmobility 	stopTime 	450
scalar RSUExampleScenario.node[30].veinsmobility 	minSpeed 	0
scalar RSUExampleScenario.node[30].veinsmobility 	maxSpeed 	13.999816743915
scalar RSUExampleScenario.node[30].veinsmobility 	totalDistance 	2099.9217006895
scalar RSUExampleScenario.node[30].veinsmobility 	totalCO2Emission 	645.7503450864
scalar RSUExampleScenario.node[31].appl 	meanClusterNodes 	0
scalar RSUExampleScenario.node[31].appl 	meanClusterHeadUtility 	0
scalar RSUExampleScenario.node[31].appl 	NumberofCH 	0.27027027027027
scalar RSUExampleScenario.node[31].appl 	NumberofON 	0
scalar RSUExampleScenario.node[31].appl 	NumberofFN 	0.72972972972973
scalar RSUExampleScenario.node[31].veinsmobility 	startTime 	74.8
scalar RSUExampleScenario.node[31].veinsmobility 	totalTime 	375.2
scalar RSUExampleScenario.node[31].veinsmobility 	stopTime 	450
scalar RSUExampleScenario.node[31].veinsmobility 	minSpeed 	0
scalar RSUExampleScenario.node[31].veinsmobility 	maxSpeed 	13.999877498448
scalar RSUExampleScenario.node[31].veinsmobility 	totalDistance 	2068.4139127539
scalar RSUExampleScenario.node[31].veinsmobility 	totalCO2Emission 	639.57325656782
scalar RSUExampleScenario.node[32].appl 	meanClusterNodes 	0
scalar RSUExampleScenario.node[32].appl 	meanClusterHeadUtility 	0
scalar RSUExampleScenario.node[32].appl 	NumberofCH 	0.16216216216216
scalar RSUExampleScenario.node[32].appl 	NumberofON 	0
scalar RSUExampleScenario.node[32].appl 	NumberofFN 	0.83783783783784
scalar RSUExampleScenario.node[32].veinsmobility 	startTime 	77.2
scalar RSUExampleScenario.node[32].veinsmobility 	totalTime 	372.8
scalar RSUExampleScenario.node[32].veinsmobility 	stopTime 	450
scalar RSUExampleScenario.node[32].veinsmobility 	minSpeed 	0
scalar RSUExampleScenario.node[32].veinsmobility 	maxSpeed 	13.999921912295
scalar RSUExampleScenario.node[32].veinsmobility 	totalDistance 	2033.2197314064
scalar RSUExampleScenario.node[32].veinsmobility 	totalCO2Emission 	637.90944530472
scalar RSUExampleScenario.node[33].appl 	meanClusterNodes 	0
scalar RSUExampleScenario.node[33].appl 	meanClusterHeadUtility 	0
scalar RSUExampleScenario.node[33].appl 	NumberofCH 	0.21621621621622
scalar RSUExampleScenario.node[33].appl 	NumberofON 	0
scalar RSUExampleScenario.node[33].appl 	NumberofFN 	0.78378378378378
scalar RSUExampleScenario.node[33].veinsmobility 	startTime 	79.6
scalar RSUExampleScenario.node[33].veinsmobility 	totalTime 	370.4
scalar RSUExampleScenario.node[33].veinsmobility 	stopTime 	450
scalar RSUExampleScenario.node[33].veinsmobility 	minSpeed 	0
scalar RSUExampleScenario.node[33].veinsmobility 	maxSpeed 	13.999932889675
scalar RSUExampleScenario.node[33].veinsmobility 	totalDistance 	1999.0122232789
scalar RSUExampleScenario.node[33].veinsmobility 	totalCO2Emission 	625.09526820935
scalar RSUExampleScenario.node[34].appl 	meanClusterNodes 	0
scalar RSUExampleScenario.node[34].appl 	meanClusterHeadUtility 	0
scalar RSUExampleScenario.node[34].appl 	NumberofCH 	0.16216216216216
scalar RSUExampleScenario.node[34].appl 	NumberofON 	0
scalar RSUExampleScenario.node[34].appl 	NumberofFN 	0.83783783783784
scalar RSUExampleScenario.node[34].veinsmobility 	startTime 	82
scalar RSUExampleScenario.node[34].veinsmobility 	totalTime 	368
scalar RSUExampleScenario.node[34].veinsmobility 	stopTime 	450
scalar RSUExampleScenario.node[34].veinsmobility 	minSpeed 	0
scalar RSUExampleScenario.node[34].veinsmobility 	maxSpeed 	13.999435717491
scalar RSUExampleScenario.node[34].veinsmobility 	totalDistance 	1967.3128133509
scalar RSUExampleScenario.node[34].veinsmobility 	totalCO2Emission 	620.06407963151
scalar RSUExampleScenario.node[35].appl 	meanClusterNodes 	0
scalar RSUExampleScenario.node[35].appl 	meanClusterHeadUtility 	0
scalar RSUExampleScenario.node[35].appl 	NumberofCH 	0.27027027027027
scalar RSUExampleScenario.node[35].appl 	NumberofON 	0
scalar RSUExampleScenario.node[35].appl 	NumberofFN 	0.72972972972973
scalar RSUExampleScenario.node[35].veinsmobility 	startTime 	84.4
scalar RSUExampleScenario.node[35].veinsmobility 	totalTime 	365.6
scalar RSUExampleScenario.node[35].veinsmobility 	stopTime 	450
scalar RSUExampleScenario.node[35].veinsmobility 	minSpeed 	0
scalar RSUExampleScenario.node[35].veinsmobility 	maxSpeed 	13.999887064886
scalar RSUExampleScenario.node[35].veinsmobility 	totalDistance 	1932.8331164425
scalar RSUExampleScenario.node[35].veinsmobility 	totalCO2Emission 	614.53737828576
scalar RSUExampleScenario.node[36].appl 	meanClusterNodes 	0
scalar RSUExampleScenario.node[36].appl 	meanClusterHeadUtility 	0
scalar RSUExampleScenario.node[36].appl 	NumberofCH 	0.16216216216216
scalar RSUExampleScenario.node[36].appl 	NumberofON 	0
scalar RSUExampleScenario.node[36].appl 	NumberofFN 	0.83783783783784
scalar RSUExampleScenario.node[36].veinsmobility 	startTime 	86.8
scalar RSUExampleScenario.node[36].veinsmobility 	totalTime 	363.2
scalar RSUExampleScenario.node[36].veinsmobility 	stopTime 	450
scalar RSUExampleScenario.node[36].veinsmobility 	minSpeed 	0
scalar RSUExampleScenario.node[36].veinsmobility 	maxSpeed 	13.999777852008
scalar RSUExampleScenario.node[36].veinsmobility 	totalDistance 	1897.2047725106
scalar RSUExampleScenario.node[36].veinsmobility 	totalCO2Emission 	609.21496149154
scalar RSUExampleScenario.node[37].appl 	meanClusterNodes 	0
scalar RSUExampleScenario.node[37].appl 	meanClusterHeadUtility 	0
scalar RSUExampleScenario.node[37].appl 	NumberofCH 	0.24324324324324
scalar RSUExampleScenario.node[37].appl 	NumberofON 	0
scalar RSUExampleScenario.node[37].appl 	NumberofFN 	0.75675675675676
scalar RSUExampleScenario.node[37].veinsmobility 	startTime 	89.2
scalar RSUExampleScenario.node[37].veinsmobility 	totalTime 	360.8
scalar RSUExampleScenario.node[37].veinsmobility 	stopTime 	450
scalar RSUExampleScenario.node[37].veinsmobility 	minSpeed 	0
scalar RSUExampleScenario.node[37].veinsmobility 	maxSpeed 	13.999833041832
scalar RSUExampleScenario.node[37].veinsmobility 	totalDistance 	1864.0219241309
scalar RSUExampleScenario.node[37].veinsmobility 	totalCO2Emission 	603.37268127313
scalar RSUExampleScenario.node[38].appl 	meanClusterNodes 	0
scalar RSUExampleScenario.node[38].appl 	meanClusterHeadUtility 	0
scalar RSUExampleScenario.node[38].appl 	NumberofCH 	0.16216216216216
scalar RSUExampleScenario.node[38].appl 	NumberofON 	0
scalar RSUExampleScenario.node[38].appl 	NumberofFN 	0.83783783783784
scalar RSUExampleScenario.node[38].veinsmobility 	startTime 	91.6
scalar RSUExampleScenario.node[38].veinsmobility 	totalTime 	358.4
scalar RSUExampleScenario.node[38].veinsmobility 	stopTime 	450
scalar RSUExampleScenario.node[38].veinsmobility 	minSpeed 	0
scalar RSUExampleScenario.node[38].veinsmobility 	maxSpeed 	13.999686222074
scalar RSUExampleScenario.node[38].veinsmobility 	totalDistance 	1831.0484205723
scalar RSUExampleScenario.node[38].veinsmobility 	totalCO2Emission 	600.41590073555
scalar RSUExampleScenario.node[39].appl 	meanClusterNodes 	0
scalar RSUExampleScenario.node[39].appl 	meanClusterHeadUtility 	0
scalar RSUExampleScenario.node[39].appl 	NumberofCH 	0.16216216216216
scalar RSUExampleScenario.node[39].appl 	NumberofON 	0
scalar RSUExampleScenario.node[39].appl 	NumberofFN 	0.83783783783784
scalar RSUExampleScenario.node[39].veinsmobility 	startTime 	94
scalar RSUExampleScenario.node[39].veinsmobility 	totalTime 	356
scalar RSUExampleScenario.node[39].veinsmobility 	stopTime 	450
scalar RSUExampleScenario.node[39].veinsmobility 	minSpeed 	0
scalar RSUExampleScenario.node[39].veinsmobility 	maxSpeed 	13.999990861521
scalar RSUExampleScenario.node[39].veinsmobility 	totalDistance 	1795.6886249781
scalar RSUExampleScenario.node[39].veinsmobility 	totalCO2Emission 	592.88988522782
scalar RSUExampleScenario.node[4].appl 	meanClusterNodes 	0
scalar RSUExampleScenario.node[4].appl 	meanClusterHeadUtility 	0
scalar RSUExampleScenario.node[4].appl 	NumberofCH 	0.24324324324324
scalar RSUExampleScenario.node[4].appl 	NumberofON 	0
scalar RSUExampleScenario.node[4].appl 	NumberofFN 	0.75675675675676
scalar RSUExampleScenario.node[4].veinsmobility 	startTime 	9.7
scalar RSUExampleScenario.node[4].veinsmobility 	totalTime 	440.3
scalar RSUExampleScenario.node[4].veinsmobility 	stopTime 	450
scalar RSUExampleScenario.node[4].veinsmobility 	minSpeed 	0
scalar RSUExampleScenario.node[4].veinsmobility 	maxSpeed 	13.99999782694
scalar RSUExampleScenario.node[4].veinsmobility 	totalDistance 	2948.5397668019
scalar RSUExampleScenario.node[4].veinsmobility 	totalCO2Emission 	797.43328054325
scalar RSUExampleScenario.node[40].appl 	meanClusterNodes 	0
scalar RSUExampleScenario.node[40].appl 	meanClusterHeadUtility 	0
scalar RSUExampleScenario.node[40].appl 	NumberofCH 	0.16216216216216
scalar RSUExampleScenario.node[40].appl 	NumberofON 	0
scalar RSUExampleScenario.node[40].appl 	NumberofFN 	0.83783783783784
scalar RSUExampleScenario.node[40].veinsmobility 	startTime 	96.5
scalar RSUExampleScenario.node[40].veinsmobility 	totalTime 	353.5
scalar RSUExampleScenario.node[40].veinsmobility 	stopTime 	450
scalar RSUExampleScenario.node[40].veinsmobility 	minSpeed 	0
scalar RSUExampleScenario.node[40].veinsmobility 	maxSpeed 	13.999808930508
scalar RSUExampleScenario.node[40].veinsmobility 	totalDistance 	1760.9381592711
scalar RSUExampleScenario.node[40].veinsmobility 	totalCO2Emission 	587.73417905185
scalar RSUExampleScenario.node[41].appl 	meanClusterNodes 	0
scalar RSUExampleScenario.node[41].appl 	meanClusterHeadUtility 	0
scalar RSUExampleScenario.node[41].appl 	NumberofCH 	0.21621621621622
scalar RSUExampleScenario.node[41].appl 	NumberofON 	0
scalar RSUExampleScenario.node[41].appl 	NumberofFN 	0.78378378378378
scalar RSUExampleScenario.node[41].veinsmobility 	startTime 	98.9
scalar RSUExampleScenario.node[41].veinsmobility 	totalTime 	351.1
scalar RSUExampleScenario.node[41].veinsmobility 	stopTime 	450
scalar RSUExampleScenario.node[41].veinsmobility 	minSpeed 	0
scalar RSUExampleScenario.node[41].veinsmobility 	maxSpeed 	13.999803512569
scalar RSUExampleScenario.node[41].veinsmobility 	totalDistance 	1728.713784892
scalar RSUExampleScenario.node[41].veinsmobility 	totalCO2Emission 	581.6081540712
scalar RSUExampleScenario.node[42].appl 	meanClusterNodes 	0
scalar RSUExampleScenario.node[42].appl 	meanClusterHeadUtility 	0
scalar RSUExampleScenario.node[42].appl 	NumberofCH 	0.21621621621622
scalar RSUExampleScenario.node[42].appl 	NumberofON 	0
scalar RSUExampleScenario.node[42].appl 	NumberofFN 	0.78378378378378
scalar RSUExampleScenario.node[42].veinsmobility 	startTime 	101.3
scalar RSUExampleScenario.node[42].veinsmobility 	totalTime 	348.7
scalar RSUExampleScenario.node[42].veinsmobility 	stopTime 	450
scalar RSUExampleScenario.node[42].veinsmobility 	minSpeed 	0
scalar RSUExampleScenario.node[42].veinsmobility 	maxSpeed 	13.999812712069
scalar RSUExampleScenario.node[42].veinsmobility 	totalDistance 	1696.1086468475
scalar RSUExampleScenario.node[42].veinsmobility 	totalCO2Emission 	576.06507728562
scalar RSUExampleScenario.node[43].appl 	meanClusterNodes 	0
scalar RSUExampleScenario.node[43].appl 	meanClusterHeadUtility 	0
scalar RSUExampleScenario.node[43].appl 	NumberofCH 	0.16216216216216
scalar RSUExampleScenario.node[43].appl 	NumberofON 	0
scalar RSUExampleScenario.node[43].appl 	NumberofFN 	0.83783783783784
scalar RSUExampleScenario.node[43].veinsmobility 	startTime 	103.7
scalar RSUExampleScenario.node[43].veinsmobility 	totalTime 	346.3
scalar RSUExampleScenario.node[43].veinsmobility 	stopTime 	450
scalar RSUExampleScenario.node[43].veinsmobility 	minSpeed 	0
scalar RSUExampleScenario.node[43].veinsmobility 	maxSpeed 	13.999871125282
scalar RSUExampleScenario.node[43].veinsmobility 	totalDistance 	1662.2970996661
scalar RSUExampleScenario.node[43].veinsmobility 	totalCO2Emission 	569.65761092205
scalar RSUExampleScenario.node[44].appl 	meanClusterNodes 	0
scalar RSUExampleScenario.node[44].appl 	meanClusterHeadUtility 	0
scalar RSUExampleScenario.node[44].appl 	NumberofCH 	0.21621621621622
scalar RSUExampleScenario.node[44].appl 	NumberofON 	0
scalar RSUExampleScenario.node[44].appl 	NumberofFN 	0.78378378378378
scalar RSUExampleScenario.node[44].veinsmobility 	startTime 	106.1
scalar RSUExampleScenario.node[44].veinsmobility 	totalTime 	343.9
scalar RSUExampleScenario.node[44].veinsmobility 	stopTime 	450
scalar RSUExampleScenario.node[44].veinsmobility 	minSpeed 	0
scalar RSUExampleScenario.node[44].veinsmobility 	maxSpeed 	13.999936986961
scalar RSUExampleScenario.node[44].veinsmobility 	totalDistance 	1628.8230366256
scalar RSUExampleScenario.node[44].veinsmobility 	totalCO2Emission 	564.67033186606
scalar RSUExampleScenario.node[45].appl 	meanClusterNodes 	0
scalar RSUExampleScenario.node[45].appl 	meanClusterHeadUtility 	0
scalar RSUExampleScenario.node[45].appl 	NumberofCH 	0.24324324324324
scalar RSUExampleScenario.node[45].appl 	NumberofON 	0
scalar RSUExampleScenario.node[45].appl 	NumberofFN 	0.75675675675676
scalar RSUExampleScenario.node[45].veinsmobility 	startTime 	108.5
scalar RSUExampleScenario.node[45].veinsmobility 	totalTime 	341.5
scalar RSUExampleScenario.node[45].veinsmobility 	stopTime 	450
scalar RSUExampleScenario.node[45].veinsmobility 	minSpeed 	0
scalar RSUExampleScenario.node[45].veinsmobility 	maxSpeed 	13.999866827985
scalar RSUExampleScenario.node[45].veinsmobility 	totalDistance 	1595.2577690155
scalar RSUExampleScenario.node[45].veinsmobility 	totalCO2Emission 	557.68045105341
scalar RSUExampleScenario.node[46].appl 	meanClusterNodes 	0
scalar RSUExampleScenario.node[46].appl 	meanClusterHeadUtility 	0
scalar RSUExampleScenario.node[46].appl 	NumberofCH 	0.16216216216216
scalar RSUExampleScenario.node[46].appl 	NumberofON 	0
scalar RSUExampleScenario.node[46].appl 	NumberofFN 	0.83783783783784
scalar RSUExampleScenario.node[46].veinsmobility 	startTime 	110.9
scalar RSUExampleScenario.node[46].veinsmobility 	totalTime 	339.1
scalar RSUExampleScenario.node[46].veinsmobility 	stopTime 	450
scalar RSUExampleScenario.node[46].veinsmobility 	minSpeed 	0
scalar RSUExampleScenario.node[46].veinsmobility 	maxSpeed 	13.999839146279
scalar RSUExampleScenario.node[46].veinsmobility 	totalDistance 	1562.3792070638
scalar RSUExampleScenario.node[46].veinsmobility 	totalCO2Emission 	557.81429821613
scalar RSUExampleScenario.node[47].appl 	meanClusterNodes 	0
scalar RSUExampleScenario.node[47].appl 	meanClusterHeadUtility 	0
scalar RSUExampleScenario.node[47].appl 	NumberofCH 	0.21621621621622
scalar RSUExampleScenario.node[47].appl 	NumberofON 	0
scalar RSUExampleScenario.node[47].appl 	NumberofFN 	0.78378378378378
scalar RSUExampleScenario.node[47].veinsmobility 	startTime 	113.3
scalar RSUExampleScenario.node[47].veinsmobility 	totalTime 	336.7
scalar RSUExampleScenario.node[47].veinsmobility 	stopTime 	450
scalar RSUExampleScenario.node[47].veinsmobility 	minSpeed 	0
scalar RSUExampleScenario.node[47].veinsmobility 	maxSpeed 	13.999754725785
scalar RSUExampleScenario.node[47].veinsmobility 	totalDistance 	1528.446031285
scalar RSUExampleScenario.node[47].veinsmobility 	totalCO2Emission 	548.10959535934
scalar RSUExampleScenario.node[48].appl 	meanClusterNodes 	0
scalar RSUExampleScenario.node[48].appl 	meanClusterHeadUtility 	0
scalar RSUExampleScenario.node[48].appl 	NumberofCH 	0.18918918918919
scalar RSUExampleScenario.node[48].appl 	NumberofON 	0
scalar RSUExampleScenario.node[48].appl 	NumberofFN 	0.81081081081081
scalar RSUExampleScenario.node[48].veinsmobility 	startTime 	115.7
scalar RSUExampleScenario.node[48].veinsmobility 	totalTime 	334.3
scalar RSUExampleScenario.node[48].veinsmobility 	stopTime 	450
scalar RSUExampleScenario.node[48].veinsmobility 	minSpeed 	0
scalar RSUExampleScenario.node[48].veinsmobility 	maxSpeed 	13.999841966075
scalar RSUExampleScenario.node[48].veinsmobility 	totalDistance 	1493.8626433755
scalar RSUExampleScenario.node[48].veinsmobility 	totalCO2Emission 	540.92889706142
scalar RSUExampleScenario.node[49].appl 	meanClusterNodes 	0
scalar RSUExampleScenario.node[49].appl 	meanClusterHeadUtility 	0
scalar RSUExampleScenario.node[49].appl 	NumberofCH 	0.21621621621622
scalar RSUExampleScenario.node[49].appl 	NumberofON 	0
scalar RSUExampleScenario.node[49].appl 	NumberofFN 	0.78378378378378
scalar RSUExampleScenario.node[49].veinsmobility 	startTime 	118.1
scalar RSUExampleScenario.node[49].veinsmobility 	totalTime 	331.9
scalar RSUExampleScenario.node[49].veinsmobility 	stopTime 	450
scalar RSUExampleScenario.node[49].veinsmobility 	minSpeed 	0
scalar RSUExampleScenario.node[49].veinsmobility 	maxSpeed 	13.999889597106
scalar RSUExampleScenario.node[49].veinsmobility 	totalDistance 	1462.7812209088
scalar RSUExampleScenario.node[49].veinsmobility 	totalCO2Emission 	537.48004662301
scalar RSUExampleScenario.node[5].appl 	meanClusterNodes 	0
scalar RSUExampleScenario.node[5].appl 	meanClusterHeadUtility 	0
scalar RSUExampleScenario.node[5].appl 	NumberofCH 	0.24324324324324
scalar RSUExampleScenario.node[5].appl 	NumberofON 	0
scalar RSUExampleScenario.node[5].appl 	NumberofFN 	0.75675675675676
scalar RSUExampleScenario.node[5].veinsmobility 	startTime 	12.1
scalar RSUExampleScenario.node[5].veinsmobility 	totalTime 	437.9
scalar RSUExampleScenario.node[5].veinsmobility 	stopTime 	450
scalar RSUExampleScenario.node[5].veinsmobility 	minSpeed 	0
scalar RSUExampleScenario.node[5].veinsmobility 	maxSpeed 	13.999979108826
scalar RSUExampleScenario.node[5].veinsmobility 	totalDistance 	2918.6876150332
scalar RSUExampleScenario.node[5].veinsmobility 	totalCO2Emission 	782.60328595642
scalar RSUExampleScenario.node[50].appl 	meanClusterNodes 	0
scalar RSUExampleScenario.node[50].appl 	meanClusterHeadUtility 	0
scalar RSUExampleScenario.node[50].appl 	NumberofCH 	0.18918918918919
scalar RSUExampleScenario.node[50].appl 	NumberofON 	0
scalar RSUExampleScenario.node[50].appl 	NumberofFN 	0.81081081081081
scalar RSUExampleScenario.node[50].veinsmobility 	startTime 	120.6
scalar RSUExampleScenario.node[50].veinsmobility 	totalTime 	329.4
scalar RSUExampleScenario.node[50].veinsmobility 	stopTime 	450
scalar RSUExampleScenario.node[50].veinsmobility 	minSpeed 	0
scalar RSUExampleScenario.node[50].veinsmobility 	maxSpeed 	13.999792957397
scalar RSUExampleScenario.node[50].veinsmobility 	totalDistance 	1428.3060187434
scalar RSUExampleScenario.node[50].veinsmobility 	totalCO2Emission 	531.22015702367
scalar RSUExampleScenario.node[51].appl 	meanClusterNodes 	0
scalar RSUExampleScenario.node[51].appl 	meanClusterHeadUtility 	0
scalar RSUExampleScenario.node[51].appl 	NumberofCH 	0.21621621621622
scalar RSUExampleScenario.node[51].appl 	NumberofON 	0
scalar RSUExampleScenario.node[51].appl 	NumberofFN 	0.78378378378378
scalar RSUExampleScenario.node[51].veinsmobility 	startTime 	123
scalar RSUExampleScenario.node[51].veinsmobility 	totalTime 	327
scalar RSUExampleScenario.node[51].veinsmobility 	stopTime 	450
scalar RSUExampleScenario.node[51].veinsmobility 	minSpeed 	0
scalar RSUExampleScenario.node[51].veinsmobility 	maxSpeed 	13.999983170275
scalar RSUExampleScenario.node[51].veinsmobility 	totalDistance 	1395.4822185179
scalar RSUExampleScenario.node[51].veinsmobility 	totalCO2Emission 	525.06634765599
scalar RSUExampleScenario.node[52].appl 	meanClusterNodes 	0
scalar RSUExampleScenario.node[52].appl 	meanClusterHeadUtility 	0
scalar RSUExampleScenario.node[52].appl 	NumberofCH 	0.27027027027027
scalar RSUExampleScenario.node[52].appl 	NumberofON 	0
scalar RSUExampleScenario.node[52].appl 	NumberofFN 	0.72972972972973
scalar RSUExampleScenario.node[52].veinsmobility 	startTime 	125.4
scalar RSUExampleScenario.node[52].veinsmobility 	totalTime 	324.6
scalar RSUExampleScenario.node[52].veinsmobility 	stopTime 	450
scalar RSUExampleScenario.node[52].veinsmobility 	minSpeed 	0
scalar RSUExampleScenario.node[52].veinsmobility 	maxSpeed 	13.999882165105
scalar RSUExampleScenario.node[52].veinsmobility 	totalDistance 	1361.546301212
scalar RSUExampleScenario.node[52].veinsmobility 	totalCO2Emission 	517.02871717356
scalar RSUExampleScenario.node[53].appl 	meanClusterNodes 	0
scalar RSUExampleScenario.node[53].appl 	meanClusterHeadUtility 	0
scalar RSUExampleScenario.node[53].appl 	NumberofCH 	0.16216216216216
scalar RSUExampleScenario.node[53].appl 	NumberofON 	0
scalar RSUExampleScenario.node[53].appl 	NumberofFN 	0.83783783783784
scalar RSUExampleScenario.node[53].veinsmobility 	startTime 	127.8
scalar RSUExampleScenario.node[53].veinsmobility 	totalTime 	322.2
scalar RSUExampleScenario.node[53].veinsmobility 	stopTime 	450
scalar RSUExampleScenario.node[53].veinsmobility 	minSpeed 	0
scalar RSUExampleScenario.node[53].veinsmobility 	maxSpeed 	13.999918349723
scalar RSUExampleScenario.node[53].veinsmobility 	totalDistance 	1327.3324631126
scalar RSUExampleScenario.node[53].veinsmobility 	totalCO2Emission 	514.58979837575
scalar RSUExampleScenario.node[54].appl 	meanClusterNodes 	0
scalar RSUExampleScenario.node[54].appl 	meanClusterHeadUtility 	0
scalar RSUExampleScenario.node[54].appl 	NumberofCH 	0.21621621621622
scalar RSUExampleScenario.node[54].appl 	NumberofON 	0
scalar RSUExampleScenario.node[54].appl 	NumberofFN 	0.78378378378378
scalar RSUExampleScenario.node[54].veinsmobility 	startTime 	130.2
scalar RSUExampleScenario.node[54].veinsmobility 	totalTime 	319.8
scalar RSUExampleScenario.node[54].veinsmobility 	stopTime 	450
scalar RSUExampleScenario.node[54].veinsmobility 	minSpeed 	0
scalar RSUExampleScenario.node[54].veinsmobility 	maxSpeed 	13.999730885027
scalar RSUExampleScenario.node[54].veinsmobility 	totalDistance 	1294.5266928231
scalar RSUExampleScenario.node[54].veinsmobility 	totalCO2Emission 	507.08572738667
scalar RSUExampleScenario.node[55].appl 	meanClusterNodes 	0
scalar RSUExampleScenario.node[55].appl 	meanClusterHeadUtility 	0
scalar RSUExampleScenario.node[55].appl 	NumberofCH 	0.18918918918919
scalar RSUExampleScenario.node[55].appl 	NumberofON 	0
scalar RSUExampleScenario.node[55].appl 	NumberofFN 	0.81081081081081
scalar RSUExampleScenario.node[55].veinsmobility 	startTime 	132.6
scalar RSUExampleScenario.node[55].veinsmobility 	totalTime 	317.4
scalar RSUExampleScenario.node[55].veinsmobility 	stopTime 	450
scalar RSUExampleScenario.node[55].veinsmobility 	minSpeed 	0
scalar RSUExampleScenario.node[55].veinsmobility 	maxSpeed 	13.99990227137
scalar RSUExampleScenario.node[55].veinsmobility 	totalDistance 	1261.2886506051
scalar RSUExampleScenario.node[55].veinsmobility 	totalCO2Emission 	503.11856040884
scalar RSUExampleScenario.node[56].appl 	meanClusterNodes 	0
scalar RSUExampleScenario.node[56].appl 	meanClusterHeadUtility 	0
scalar RSUExampleScenario.node[56].appl 	NumberofCH 	0.24324324324324
scalar RSUExampleScenario.node[56].appl 	NumberofON 	0
scalar RSUExampleScenario.node[56].appl 	NumberofFN 	0.75675675675676
scalar RSUExampleScenario.node[56].veinsmobility 	startTime 	135
scalar RSUExampleScenario.node[56].veinsmobility 	totalTime 	315
scalar RSUExampleScenario.node[56].veinsmobility 	stopTime 	450
scalar RSUExampleScenario.node[56].veinsmobility 	minSpeed 	0
scalar RSUExampleScenario.node[56].veinsmobility 	maxSpeed 	13.999867333702
scalar RSUExampleScenario.node[56].veinsmobility 	totalDistance 	1226.7044520197
scalar RSUExampleScenario.node[56].veinsmobility 	totalCO2Emission 	495.00223574014
scalar RSUExampleScenario.node[57].appl 	meanClusterNodes 	0
scalar RSUExampleScenario.node[57].appl 	meanClusterHeadUtility 	0
scalar RSUExampleScenario.node[57].appl 	NumberofCH 	0.16216216216216
scalar RSUExampleScenario.node[57].appl 	NumberofON 	0
scalar RSUExampleScenario.node[57].appl 	NumberofFN 	0.83783783783784
scalar RSUExampleScenario.node[57].veinsmobility 	startTime 	137.4
scalar RSUExampleScenario.node[57].veinsmobility 	totalTime 	312.6
scalar RSUExampleScenario.node[57].veinsmobility 	stopTime 	450
scalar RSUExampleScenario.node[57].veinsmobility 	minSpeed 	0
scalar RSUExampleScenario.node[57].veinsmobility 	maxSpeed 	13.999960873818
scalar RSUExampleScenario.node[57].veinsmobility 	totalDistance 	1193.9247381634
scalar RSUExampleScenario.node[57].veinsmobility 	totalCO2Emission 	490.50803133947
scalar RSUExampleScenario.node[58].appl 	meanClusterNodes 	0
scalar RSUExampleScenario.node[58].appl 	meanClusterHeadUtility 	0
scalar RSUExampleScenario.node[58].appl 	NumberofCH 	0.18918918918919
scalar RSUExampleScenario.node[58].appl 	NumberofON 	0
scalar RSUExampleScenario.node[58].appl 	NumberofFN 	0.81081081081081
scalar RSUExampleScenario.node[58].veinsmobility 	startTime 	139.8
scalar RSUExampleScenario.node[58].veinsmobility 	totalTime 	310.2
scalar RSUExampleScenario.node[58].veinsmobility 	stopTime 	450
scalar RSUExampleScenario.node[58].veinsmobility 	minSpeed 	0
scalar RSUExampleScenario.node[58].veinsmobility 	maxSpeed 	13.999809733881
scalar RSUExampleScenario.node[58].veinsmobility 	totalDistance 	1160.4309474353
scalar RSUExampleScenario.node[58].veinsmobility 	totalCO2Emission 	485.23027561991
scalar RSUExampleScenario.node[59].appl 	meanClusterNodes 	0
scalar RSUExampleScenario.node[59].appl 	meanClusterHeadUtility 	0
scalar RSUExampleScenario.node[59].appl 	NumberofCH 	0.16216216216216
scalar RSUExampleScenario.node[59].appl 	NumberofON 	0
scalar RSUExampleScenario.node[59].appl 	NumberofFN 	0.83783783783784
scalar RSUExampleScenario.node[59].veinsmobility 	startTime 	142.2
scalar RSUExampleScenario.node[59].veinsmobility 	totalTime 	307.8
scalar RSUExampleScenario.node[59].veinsmobility 	stopTime 	450
scalar RSUExampleScenario.node[59].veinsmobility 	minSpeed 	0
scalar RSUExampleScenario.node[59].veinsmobility 	maxSpeed 	13.999972150307
scalar RSUExampleScenario.node[59].veinsmobility 	totalDistance 	1125.7244436228
scalar RSUExampleScenario.node[59].veinsmobility 	totalCO2Emission 	480.31349176795
scalar RSUExampleScenario.node[6].appl 	meanClusterNodes 	0
scalar RSUExampleScenario.node[6].appl 	meanClusterHeadUtility 	0
scalar RSUExampleScenario.node[6].appl 	NumberofCH 	0.21621621621622
scalar RSUExampleScenario.node[6].appl 	NumberofON 	0
scalar RSUExampleScenario.node[6].appl 	NumberofFN 	0.78378378378378
scalar RSUExampleScenario.node[6].veinsmobility 	startTime 	14.5
scalar RSUExampleScenario.node[6].veinsmobility 	totalTime 	435.5
scalar RSUExampleScenario.node[6].veinsmobility 	stopTime 	450
scalar RSUExampleScenario.node[6].veinsmobility 	minSpeed 	0
scalar RSUExampleScenario.node[6].veinsmobility 	maxSpeed 	13.999985036689
scalar RSUExampleScenario.node[6].veinsmobility 	totalDistance 	2902.2141378839
scalar RSUExampleScenario.node[6].veinsmobility 	totalCO2Emission 	781.8824468148
scalar RSUExampleScenario.node[60].appl 	meanClusterNodes 	0
scalar RSUExampleScenario.node[60].appl 	meanClusterHeadUtility 	0
scalar RSUExampleScenario.node[60].appl 	NumberofCH 	0.21621621621622
scalar RSUExampleScenario.node[60].appl 	NumberofON 	0
scalar RSUExampleScenario.node[60].appl 	NumberofFN 	0.78378378378378
scalar RSUExampleScenario.node[60].veinsmobility 	startTime 	144.7
scalar RSUExampleScenario.node[60].veinsmobility 	totalTime 	305.3
scalar RSUExampleScenario.node[60].veinsmobility 	stopTime 	450
scalar RSUExampleScenario.node[60].veinsmobility 	minSpeed 	0
scalar RSUExampleScenario.node[60].veinsmobility 	maxSpeed 	13.999899333166
scalar RSUExampleScenario.node[60].veinsmobility 	totalDistance 	1091.6666669272
scalar RSUExampleScenario.node[60].veinsmobility 	totalCO2Emission 	473.31654204943
scalar RSUExampleScenario.node[61].appl 	meanClusterNodes 	0
scalar RSUExampleScenario.node[61].appl 	meanClusterHeadUtility 	0
scalar RSUExampleScenario.node[61].appl 	NumberofCH 	0.16216216216216
scalar RSUExampleScenario.node[61].appl 	NumberofON 	0
scalar RSUExampleScenario.node[61].appl 	NumberofFN 	0.83783783783784
scalar RSUExampleScenario.node[61].veinsmobility 	startTime 	147.1
scalar RSUExampleScenario.node[61].veinsmobility 	totalTime 	302.9
scalar RSUExampleScenario.node[61].veinsmobility 	stopTime 	450
scalar RSUExampleScenario.node[61].veinsmobility 	minSpeed 	0
scalar RSUExampleScenario.node[61].veinsmobility 	maxSpeed 	13.999894123683
scalar RSUExampleScenario.node[61].veinsmobility 	totalDistance 	1057.7221410162
scalar RSUExampleScenario.node[61].veinsmobility 	totalCO2Emission 	468.01273331171
scalar RSUExampleScenario.node[62].appl 	meanClusterNodes 	0
scalar RSUExampleScenario.node[62].appl 	meanClusterHeadUtility 	0
scalar RSUExampleScenario.node[62].appl 	NumberofCH 	0.18918918918919
scalar RSUExampleScenario.node[62].appl 	NumberofON 	0
scalar RSUExampleScenario.node[62].appl 	NumberofFN 	0.81081081081081
scalar RSUExampleScenario.node[62].veinsmobility 	startTime 	149.5
scalar RSUExampleScenario.node[62].veinsmobility 	totalTime 	300.5
scalar RSUExampleScenario.node[62].veinsmobility 	stopTime 	450
scalar RSUExampleScenario.node[62].veinsmobility 	minSpeed 	0
scalar RSUExampleScenario.node[62].veinsmobility 	maxSpeed 	13.999860318159
scalar RSUExampleScenario.node[62].veinsmobility 	totalDistance 	1024.8573003983
scalar RSUExampleScenario.node[62].veinsmobility 	totalCO2Emission 	463.76149068129
scalar RSUExampleScenario.node[63].appl 	meanClusterNodes 	0
scalar RSUExampleScenario.node[63].appl 	meanClusterHeadUtility 	0
scalar RSUExampleScenario.node[63].appl 	NumberofCH 	0.24324324324324
scalar RSUExampleScenario.node[63].appl 	NumberofON 	0
scalar RSUExampleScenario.node[63].appl 	NumberofFN 	0.75675675675676
scalar RSUExampleScenario.node[63].veinsmobility 	startTime 	151.9
scalar RSUExampleScenario.node[63].veinsmobility 	totalTime 	298.1
scalar RSUExampleScenario.node[63].veinsmobility 	stopTime 	450
scalar RSUExampleScenario.node[63].veinsmobility 	minSpeed 	0
scalar RSUExampleScenario.node[63].veinsmobility 	maxSpeed 	13.999517203353
scalar RSUExampleScenario.node[63].veinsmobility 	totalDistance 	988.23559822385
scalar RSUExampleScenario.node[63].veinsmobility 	totalCO2Emission 	450.68196123937
scalar RSUExampleScenario.node[64].appl 	meanClusterNodes 	0
scalar RSUExampleScenario.node[64].appl 	meanClusterHeadUtility 	0
scalar RSUExampleScenario.node[64].appl 	NumberofCH 	0.21621621621622
scalar RSUExampleScenario.node[64].appl 	NumberofON 	0
scalar RSUExampleScenario.node[64].appl 	NumberofFN 	0.78378378378378
scalar RSUExampleScenario.node[64].veinsmobility 	startTime 	154.3
scalar RSUExampleScenario.node[64].veinsmobility 	totalTime 	295.7
scalar RSUExampleScenario.node[64].veinsmobility 	stopTime 	450
scalar RSUExampleScenario.node[64].veinsmobility 	minSpeed 	0
scalar RSUExampleScenario.node[64].veinsmobility 	maxSpeed 	13.999952303742
scalar RSUExampleScenario.node[64].veinsmobility 	totalDistance 	954.59536321676
scalar RSUExampleScenario.node[64].veinsmobility 	totalCO2Emission 	434.75632165918
scalar RSUExampleScenario.node[65].appl 	meanClusterNodes 	0
scalar RSUExampleScenario.node[65].appl 	meanClusterHeadUtility 	0
scalar RSUExampleScenario.node[65].appl 	NumberofCH 	0.27027027027027
scalar RSUExampleScenario.node[65].appl 	NumberofON 	0
scalar RSUExampleScenario.node[65].appl 	NumberofFN 	0.72972972972973
scalar RSUExampleScenario.node[65].veinsmobility 	startTime 	156.7
scalar RSUExampleScenario.node[65].veinsmobility 	totalTime 	293.3
scalar RSUExampleScenario.node[65].veinsmobility 	stopTime 	450
scalar RSUExampleScenario.node[65].veinsmobility 	minSpeed 	0
scalar RSUExampleScenario.node[65].veinsmobility 	maxSpeed 	13.999948759663
scalar RSUExampleScenario.node[65].veinsmobility 	totalDistance 	940.67596937939
scalar RSUExampleScenario.node[65].veinsmobility 	totalCO2Emission 	427.84582590896
scalar RSUExampleScenario.node[66].appl 	meanClusterNodes 	0
scalar RSUExampleScenario.node[66].appl 	meanClusterHeadUtility 	0
scalar RSUExampleScenario.node[66].appl 	NumberofCH 	0.18918918918919
scalar RSUExampleScenario.node[66].appl 	NumberofON 	0
scalar RSUExampleScenario.node[66].appl 	NumberofFN 	0.81081081081081
scalar RSUExampleScenario.node[66].veinsmobility 	startTime 	159.1
scalar RSUExampleScenario.node[66].veinsmobility 	totalTime 	290.9
scalar RSUExampleScenario.node[66].veinsmobility 	stopTime 	450
scalar RSUExampleScenario.node[66].veinsmobility 	minSpeed 	0
scalar RSUExampleScenario.node[66].veinsmobility 	maxSpeed 	13.999421429792
scalar RSUExampleScenario.node[66].veinsmobility 	totalDistance 	928.427659271
scalar RSUExampleScenario.node[66].veinsmobility 	totalCO2Emission 	423.23507306416
scalar RSUExampleScenario.node[67].appl 	meanClusterNodes 	0
scalar RSUExampleScenario.node[67].appl 	meanClusterHeadUtility 	0
scalar RSUExampleScenario.node[67].appl 	NumberofCH 	0.18918918918919
scalar RSUExampleScenario.node[67].appl 	NumberofON 	0
scalar RSUExampleScenario.node[67].appl 	NumberofFN 	0.81081081081081
scalar RSUExampleScenario.node[67].veinsmobility 	startTime 	161.5
scalar RSUExampleScenario.node[67].veinsmobility 	totalTime 	288.5
scalar RSUExampleScenario.node[67].veinsmobility 	stopTime 	450
scalar RSUExampleScenario.node[67].veinsmobility 	minSpeed 	0
scalar RSUExampleScenario.node[67].veinsmobility 	maxSpeed 	13.999851430268
scalar RSUExampleScenario.node[67].veinsmobility 	totalDistance 	913.76547788715
scalar RSUExampleScenario.node[67].veinsmobility 	totalCO2Emission 	421.8071739696
scalar RSUExampleScenario.node[68].appl 	meanClusterNodes 	0
scalar RSUExampleScenario.node[68].appl 	meanClusterHeadUtility 	0
scalar RSUExampleScenario.node[68].appl 	NumberofCH 	0.21621621621622
scalar RSUExampleScenario.node[68].appl 	NumberofON 	0
scalar RSUExampleScenario.node[68].appl 	NumberofFN 	0.78378378378378
scalar RSUExampleScenario.node[68].veinsmobility 	startTime 	163.9
scalar RSUExampleScenario.node[68].veinsmobility 	totalTime 	286.1
scalar RSUExampleScenario.node[68].veinsmobility 	stopTime 	450
scalar RSUExampleScenario.node[68].veinsmobility 	minSpeed 	0
scalar RSUExampleScenario.node[68].veinsmobility 	maxSpeed 	13.999978977069
scalar RSUExampleScenario.node[68].veinsmobility 	totalDistance 	895.37458085164
scalar RSUExampleScenario.node[68].veinsmobility 	totalCO2Emission 	419.65206779789
scalar RSUExampleScenario.node[69].appl 	meanClusterNodes 	0
scalar RSUExampleScenario.node[69].appl 	meanClusterHeadUtility 	0
scalar RSUExampleScenario.node[69].appl 	NumberofCH 	0.27027027027027
scalar RSUExampleScenario.node[69].appl 	NumberofON 	0
scalar RSUExampleScenario.node[69].appl 	NumberofFN 	0.72972972972973
scalar RSUExampleScenario.node[69].veinsmobility 	startTime 	166.3
scalar RSUExampleScenario.node[69].veinsmobility 	totalTime 	283.7
scalar RSUExampleScenario.node[69].veinsmobility 	stopTime 	450
scalar RSUExampleScenario.node[69].veinsmobility 	minSpeed 	0
scalar RSUExampleScenario.node[69].veinsmobility 	maxSpeed 	13.999973970109
scalar RSUExampleScenario.node[69].veinsmobility 	totalDistance 	860.09868568294
scalar RSUExampleScenario.node[69].veinsmobility 	totalCO2Emission 	412.93945022728
scalar RSUExampleScenario.node[7].appl 	meanClusterNodes 	0
scalar RSUExampleScenario.node[7].appl 	meanClusterHeadUtility 	0
scalar RSUExampleScenario.node[7].appl 	NumberofCH 	0.21621621621622
scalar RSUExampleScenario.node[7].appl 	NumberofON 	0
scalar RSUExampleScenario.node[7].appl 	NumberofFN 	0.78378378378378
scalar RSUExampleScenario.node[7].veinsmobility 	startTime 	16.9
scalar RSUExampleScenario.node[7].veinsmobility 	totalTime 	433.1
scalar RSUExampleScenario.node[7].veinsmobility 	stopTime 	450
scalar RSUExampleScenario.node[7].veinsmobility 	minSpeed 	0
scalar RSUExampleScenario.node[7].veinsmobility 	maxSpeed 	13.999955572411
scalar RSUExampleScenario.node[7].veinsmobility 	totalDistance 	2890.0130356103
scalar RSUExampleScenario.node[7].veinsmobility 	totalCO2Emission 	774.9153156264
scalar RSUExampleScenario.node[70].appl 	meanClusterNodes 	0
scalar RSUExampleScenario.node[70].appl 	meanClusterHeadUtility 	0
scalar RSUExampleScenario.node[70].appl 	NumberofCH 	0.16216216216216
scalar RSUExampleScenario.node[70].appl 	NumberofON 	0
scalar RSUExampleScenario.node[70].appl 	NumberofFN 	0.83783783783784
scalar RSUExampleScenario.node[70].veinsmobility 	startTime 	168.8
scalar RSUExampleScenario.node[70].veinsmobility 	totalTime 	281.2
scalar RSUExampleScenario.node[70].veinsmobility 	stopTime 	450
scalar RSUExampleScenario.node[70].veinsmobility 	minSpeed 	0
scalar RSUExampleScenario.node[70].veinsmobility 	maxSpeed 	13.999631883628
scalar RSUExampleScenario.node[70].veinsmobility 	totalDistance 	826.30039918168
scalar RSUExampleScenario.node[70].veinsmobility 	totalCO2Emission 	410.47325387068
scalar RSUExampleScenario.node[71].appl 	meanClusterNodes 	0
scalar RSUExampleScenario.node[71].appl 	meanClusterHeadUtility 	0
scalar RSUExampleScenario.node[71].appl 	NumberofCH 	0.16216216216216
scalar RSUExampleScenario.node[71].appl 	NumberofON 	0
scalar RSUExampleScenario.node[71].appl 	NumberofFN 	0.83783783783784
scalar RSUExampleScenario.node[71].veinsmobility 	startTime 	171.2
scalar RSUExampleScenario.node[71].veinsmobility 	totalTime 	278.8
scalar RSUExampleScenario.node[71].veinsmobility 	stopTime 	450
scalar RSUExampleScenario.node[71].veinsmobility 	minSpeed 	0
scalar RSUExampleScenario.node[71].veinsmobility 	maxSpeed 	13.999403130708
scalar RSUExampleScenario.node[71].veinsmobility 	totalDistance 	793.34314251958
scalar RSUExampleScenario.node[71].veinsmobility 	totalCO2Emission 	402.23424472045
scalar RSUExampleScenario.node[72].appl 	meanClusterNodes 	0
scalar RSUExampleScenario.node[72].appl 	meanClusterHeadUtility 	0
scalar RSUExampleScenario.node[72].appl 	NumberofCH 	0.27027027027027
scalar RSUExampleScenario.node[72].appl 	NumberofON 	0
scalar RSUExampleScenario.node[72].appl 	NumberofFN 	0.72972972972973
scalar RSUExampleScenario.node[72].veinsmobility 	startTime 	173.6
scalar RSUExampleScenario.node[72].veinsmobility 	totalTime 	276.4
scalar RSUExampleScenario.node[72].veinsmobility 	stopTime 	450
scalar RSUExampleScenario.node[72].veinsmobility 	minSpeed 	0
scalar RSUExampleScenario.node[72].veinsmobility 	maxSpeed 	13.999806626539
scalar RSUExampleScenario.node[72].veinsmobility 	totalDistance 	757.53477015017
scalar RSUExampleScenario.node[72].veinsmobility 	totalCO2Emission 	395.68282605139
scalar RSUExampleScenario.node[73].appl 	meanClusterNodes 	0
scalar RSUExampleScenario.node[73].appl 	meanClusterHeadUtility 	0
scalar RSUExampleScenario.node[73].appl 	NumberofCH 	0.21621621621622
scalar RSUExampleScenario.node[73].appl 	NumberofON 	0
scalar RSUExampleScenario.node[73].appl 	NumberofFN 	0.78378378378378
scalar RSUExampleScenario.node[73].veinsmobility 	startTime 	176
scalar RSUExampleScenario.node[73].veinsmobility 	totalTime 	274
scalar RSUExampleScenario.node[73].veinsmobility 	stopTime 	450
scalar RSUExampleScenario.node[73].veinsmobility 	minSpeed 	0
scalar RSUExampleScenario.node[73].veinsmobility 	maxSpeed 	13.999905491006
scalar RSUExampleScenario.node[73].veinsmobility 	totalDistance 	724.72439109736
scalar RSUExampleScenario.node[73].veinsmobility 	totalCO2Emission 	389.84473082997
scalar RSUExampleScenario.node[74].appl 	meanClusterNodes 	0
scalar RSUExampleScenario.node[74].appl 	meanClusterHeadUtility 	0
scalar RSUExampleScenario.node[74].appl 	NumberofCH 	0.16216216216216
scalar RSUExampleScenario.node[74].appl 	NumberofON 	0
scalar RSUExampleScenario.node[74].appl 	NumberofFN 	0.83783783783784
scalar RSUExampleScenario.node[74].veinsmobility 	startTime 	178.4
scalar RSUExampleScenario.node[74].veinsmobility 	totalTime 	271.6
scalar RSUExampleScenario.node[74].veinsmobility 	stopTime 	450
scalar RSUExampleScenario.node[74].veinsmobility 	minSpeed 	0
scalar RSUExampleScenario.node[74].veinsmobility 	maxSpeed 	13.999286965244
scalar RSUExampleScenario.node[74].veinsmobility 	totalDistance 	692.31501541297
scalar RSUExampleScenario.node[74].veinsmobility 	totalCO2Emission 	383.95596915848
scalar RSUExampleScenario.node[75].appl 	meanClusterNodes 	0
scalar RSUExampleScenario.node[75].appl 	meanClusterHeadUtility 	0
scalar RSUExampleScenario.node[75].appl 	NumberofCH 	0.21621621621622
scalar RSUExampleScenario.node[75].appl 	NumberofON 	0
scalar RSUExampleScenario.node[75].appl 	NumberofFN 	0.78378378378378
scalar RSUExampleScenario.node[75].veinsmobility 	startTime 	180.8
scalar RSUExampleScenario.node[75].veinsmobility 	totalTime 	269.2
scalar RSUExampleScenario.node[75].veinsmobility 	stopTime 	450
scalar RSUExampleScenario.node[75].veinsmobility 	minSpeed 	0
scalar RSUExampleScenario.node[75].veinsmobility 	maxSpeed 	13.999634057293
scalar RSUExampleScenario.node[75].veinsmobility 	totalDistance 	657.64443568787
scalar RSUExampleScenario.node[75].veinsmobility 	totalCO2Emission 	377.86945836234
scalar RSUExampleScenario.node[76].appl 	meanClusterNodes 	0
scalar RSUExampleScenario.node[76].appl 	meanClusterHeadUtility 	0
scalar RSUExampleScenario.node[76].appl 	NumberofCH 	0.21621621621622
scalar RSUExampleScenario.node[76].appl 	NumberofON 	0
scalar RSUExampleScenario.node[76].appl 	NumberofFN 	0.78378378378378
scalar RSUExampleScenario.node[76].veinsmobility 	startTime 	183.2
scalar RSUExampleScenario.node[76].veinsmobility 	totalTime 	266.8
scalar RSUExampleScenario.node[76].veinsmobility 	stopTime 	450
scalar RSUExampleScenario.node[76].veinsmobility 	minSpeed 	0
scalar RSUExampleScenario.node[76].veinsmobility 	maxSpeed 	13.999748989427
scalar RSUExampleScenario.node[76].veinsmobility 	totalDistance 	622.79706690134
scalar RSUExampleScenario.node[76].veinsmobility 	totalCO2Emission 	373.24889133377
scalar RSUExampleScenario.node[77].appl 	meanClusterNodes 	0
scalar RSUExampleScenario.node[77].appl 	meanClusterHeadUtility 	0
scalar RSUExampleScenario.node[77].appl 	NumberofCH 	0.21621621621622
scalar RSUExampleScenario.node[77].appl 	NumberofON 	0
scalar RSUExampleScenario.node[77].appl 	NumberofFN 	0.78378378378378
scalar RSUExampleScenario.node[77].veinsmobility 	startTime 	185.6
scalar RSUExampleScenario.node[77].veinsmobility 	totalTime 	264.4
scalar RSUExampleScenario.node[77].veinsmobility 	stopTime 	450
scalar RSUExampleScenario.node[77].veinsmobility 	minSpeed 	0
scalar RSUExampleScenario.node[77].veinsmobility 	maxSpeed 	13.999845287623
scalar RSUExampleScenario.node[77].veinsmobility 	totalDistance 	590.84772569854
scalar RSUExampleScenario.node[77].veinsmobility 	totalCO2Emission 	366.78658499757
scalar RSUExampleScenario.node[78].appl 	meanClusterNodes 	0
scalar RSUExampleScenario.node[78].appl 	meanClusterHeadUtility 	0
scalar RSUExampleScenario.node[78].appl 	NumberofCH 	0.21621621621622
scalar RSUExampleScenario.node[78].appl 	NumberofON 	0
scalar RSUExampleScenario.node[78].appl 	NumberofFN 	0.78378378378378
scalar RSUExampleScenario.node[78].veinsmobility 	startTime 	188
scalar RSUExampleScenario.node[78].veinsmobility 	totalTime 	262
scalar RSUExampleScenario.node[78].veinsmobility 	stopTime 	450
scalar RSUExampleScenario.node[78].veinsmobility 	minSpeed 	0
scalar RSUExampleScenario.node[78].veinsmobility 	maxSpeed 	13.999941323334
scalar RSUExampleScenario.node[78].veinsmobility 	totalDistance 	556.71753547384
scalar RSUExampleScenario.node[78].veinsmobility 	totalCO2Emission 	361.89005145981
scalar RSUExampleScenario.node[79].appl 	meanClusterNodes 	0
scalar RSUExampleScenario.node[79].appl 	meanClusterHeadUtility 	0
scalar RSUExampleScenario.node[79].appl 	NumberofCH 	0.18918918918919
scalar RSUExampleScenario.node[79].appl 	NumberofON 	0
scalar RSUExampleScenario.node[79].appl 	NumberofFN 	0.81081081081081
scalar RSUExampleScenario.node[79].veinsmobility 	startTime 	190.4
scalar RSUExampleScenario.node[79].veinsmobility 	totalTime 	259.6
scalar RSUExampleScenario.node[79].veinsmobility 	stopTime 	450
scalar RSUExampleScenario.node[79].veinsmobility 	minSpeed 	0
scalar RSUExampleScenario.node[79].veinsmobility 	maxSpeed 	13.998532652222
scalar RSUExampleScenario.node[79].veinsmobility 	totalDistance 	525.70291487551
scalar RSUExampleScenario.node[79].veinsmobility 	totalCO2Emission 	357.94549622812
scalar RSUExampleScenario.node[8].appl 	meanClusterNodes 	0
scalar RSUExampleScenario.node[8].appl 	meanClusterHeadUtility 	0
scalar RSUExampleScenario.node[8].appl 	NumberofCH 	0.18918918918919
scalar RSUExampleScenario.node[8].appl 	NumberofON 	0
scalar RSUExampleScenario.node[8].appl 	NumberofFN 	0.81081081081081
scalar RSUExampleScenario.node[8].veinsmobility 	startTime 	19.3
scalar RSUExampleScenario.node[8].veinsmobility 	totalTime 	430.7
scalar RSUExampleScenario.node[8].veinsmobility 	stopTime 	450
scalar RSUExampleScenario.node[8].veinsmobility 	minSpeed 	0
scalar RSUExampleScenario.node[8].veinsmobility 	maxSpeed 	13.999895740901
scalar RSUExampleScenario.node[8].veinsmobility 	totalDistance 	2859.9619931341
scalar RSUExampleScenario.node[8].veinsmobility 	totalCO2Emission 	771.56191123932
scalar RSUExampleScenario.node[80].appl 	meanClusterNodes 	0
scalar RSUExampleScenario.node[80].appl 	meanClusterHeadUtility 	0
scalar RSUExampleScenario.node[80].appl 	NumberofCH 	0.16216216216216
scalar RSUExampleScenario.node[80].appl 	NumberofON 	0
scalar RSUExampleScenario.node[80].appl 	NumberofFN 	0.83783783783784
scalar RSUExampleScenario.node[80].veinsmobility 	startTime 	192.9
scalar RSUExampleScenario.node[80].veinsmobility 	totalTime 	257.1
scalar RSUExampleScenario.node[80].veinsmobility 	stopTime 	450
scalar RSUExampleScenario.node[80].veinsmobility 	minSpeed 	0
scalar RSUExampleScenario.node[80].veinsmobility 	maxSpeed 	13.999598915044
scalar RSUExampleScenario.node[80].veinsmobility 	totalDistance 	491.51348282352
scalar RSUExampleScenario.node[80].veinsmobility 	totalCO2Emission 	350.61917264619
scalar RSUExampleScenario.node[81].appl 	meanClusterNodes 	0
scalar RSUExampleScenario.node[81].appl 	meanClusterHeadUtility 	0
scalar RSUExampleScenario.node[81].appl 	NumberofCH 	0.21621621621622
scalar RSUExampleScenario.node[81].appl 	NumberofON 	0
scalar RSUExampleScenario.node[81].appl 	NumberofFN 	0.78378378378378
scalar RSUExampleScenario.node[81].veinsmobility 	startTime 	195.3
scalar RSUExampleScenario.node[81].veinsmobility 	totalTime 	254.7
scalar RSUExampleScenario.node[81].veinsmobility 	stopTime 	450
scalar RSUExampleScenario.node[81].veinsmobility 	minSpeed 	0
scalar RSUExampleScenario.node[81].veinsmobility 	maxSpeed 	13.999695740235
scalar RSUExampleScenario.node[81].veinsmobility 	totalDistance 	457.34653565618
scalar RSUExampleScenario.node[81].veinsmobility 	totalCO2Emission 	345.67165634943
scalar RSUExampleScenario.node[82].appl 	meanClusterNodes 	0
scalar RSUExampleScenario.node[82].appl 	meanClusterHeadUtility 	0
scalar RSUExampleScenario.node[82].appl 	NumberofCH 	0.21621621621622
scalar RSUExampleScenario.node[82].appl 	NumberofON 	0
scalar RSUExampleScenario.node[82].appl 	NumberofFN 	0.78378378378378
scalar RSUExampleScenario.node[82].veinsmobility 	startTime 	197.7
scalar RSUExampleScenario.node[82].veinsmobility 	totalTime 	252.3
scalar RSUExampleScenario.node[82].veinsmobility 	stopTime 	450
scalar RSUExampleScenario.node[82].veinsmobility 	minSpeed 	0
scalar RSUExampleScenario.node[82].veinsmobility 	maxSpeed 	13.998773379549
scalar RSUExampleScenario.node[82].veinsmobility 	totalDistance 	423.01036174869
scalar RSUExampleScenario.node[82].veinsmobility 	totalCO2Emission 	340.41477219326
scalar RSUExampleScenario.node[83].appl 	meanClusterNodes 	0
scalar RSUExampleScenario.node[83].appl 	meanClusterHeadUtility 	0
scalar RSUExampleScenario.node[83].appl 	NumberofCH 	0.16216216216216
scalar RSUExampleScenario.node[83].appl 	NumberofON 	0
scalar RSUExampleScenario.node[83].appl 	NumberofFN 	0.83783783783784
scalar RSUExampleScenario.node[83].veinsmobility 	startTime 	200.1
scalar RSUExampleScenario.node[83].veinsmobility 	totalTime 	249.9
scalar RSUExampleScenario.node[83].veinsmobility 	stopTime 	450
scalar RSUExampleScenario.node[83].veinsmobility 	minSpeed 	0
scalar RSUExampleScenario.node[83].veinsmobility 	maxSpeed 	13.996465607274
scalar RSUExampleScenario.node[83].veinsmobility 	totalDistance 	388.23079447525
scalar RSUExampleScenario.node[83].veinsmobility 	totalCO2Emission 	335.57154258148
scalar RSUExampleScenario.node[84].appl 	meanClusterNodes 	0
scalar RSUExampleScenario.node[84].appl 	meanClusterHeadUtility 	0
scalar RSUExampleScenario.node[84].appl 	NumberofCH 	0.18918918918919
scalar RSUExampleScenario.node[84].appl 	NumberofON 	0
scalar RSUExampleScenario.node[84].appl 	NumberofFN 	0.81081081081081
scalar RSUExampleScenario.node[84].veinsmobility 	startTime 	202.5
scalar RSUExampleScenario.node[84].veinsmobility 	totalTime 	247.5
scalar RSUExampleScenario.node[84].veinsmobility 	stopTime 	450
scalar RSUExampleScenario.node[84].veinsmobility 	minSpeed 	0
scalar RSUExampleScenario.node[84].veinsmobility 	maxSpeed 	13.999244978344
scalar RSUExampleScenario.node[84].veinsmobility 	totalDistance 	355.27185085116
scalar RSUExampleScenario.node[84].veinsmobility 	totalCO2Emission 	328.48587846666
scalar RSUExampleScenario.node[85].appl 	meanClusterNodes 	0
scalar RSUExampleScenario.node[85].appl 	meanClusterHeadUtility 	0
scalar RSUEx