version 2
run statistic3-1628-20150325-11:24:54-20552
attr c 25
attr configname statistic3
attr datetime 20150325-11:24:54
attr experiment statistic3
attr inifile omnetpp.ini
attr iterationvars "$p=1/10, $c=25"
attr iterationvars2 "$p=1/10, $c=25, $repetition=28"
attr measurement "$p=1/10, $c=25"
attr network RSUExampleScenario
attr p 1/10
attr processid 20552
attr repetition 28
attr replication #28
attr resultdir results
attr runnumber 1628
attr seedset 1628

scalar . 	c 	25
scalar RSUExampleScenario.rsu[0].appl 	NumberofCH 	7
scalar RSUExampleScenario.rsu[0].appl 	NumberofON 	84
scalar RSUExampleScenario.rsu[0].appl 	NumberofFN 	9
scalar RSUExampleScenario.rsu[0].appl 	meanClusterNodes 	12
scalar RSUExampleScenario.rsu[0].appl 	varClusterNodes 	7.6345081233642
scalar RSUExampleScenario.rsu[0].appl 	sumCHutility 	263.31299528564
scalar RSUExampleScenario.rsu[0].appl 	meanCHutility 	37.616142183663
scalar RSUExampleScenario.rsu[0].appl 	varCHutility 	2.6439351041378
scalar RSUExampleScenario.rsu[0].appl 	sumDiffCHutility 	-22.967320804318
scalar RSUExampleScenario.rsu[0].appl 	meanDiffCHutility 	-3.2810458291883
scalar RSUExampleScenario.rsu[0].appl 	varDiffCHutility 	2.470372746064
scalar RSUExampleScenario.rsu[0].appl 	expectedCHutility 	240.34567448132
scalar RSUExampleScenario.rsu[0].appl 	meanExpectedCHutility 	34.335096354474
scalar RSUExampleScenario.rsu[0].appl 	varExpectedCHutility 	0.37173519458479
scalar RSUExampleScenario.node[0].veinsmobility 	startTime 	0.1
scalar RSUExampleScenario.node[0].veinsmobility 	totalTime 	349.9
scalar RSUExampleScenario.node[0].veinsmobility 	stopTime 	350
scalar RSUExampleScenario.node[0].veinsmobility 	minSpeed 	0
scalar RSUExampleScenario.node[0].veinsmobility 	maxSpeed 	13.999859744792
scalar RSUExampleScenario.node[0].veinsmobility 	totalDistance 	3129.7277504931
scalar RSUExampleScenario.node[0].veinsmobility 	totalCO2Emission 	741.08408131034
scalar RSUExampleScenario.node[1].veinsmobility 	startTime 	2.5
scalar RSUExampleScenario.node[1].veinsmobility 	totalTime 	347.5
scalar RSUExampleScenario.node[1].veinsmobility 	stopTime 	350
scalar RSUExampleScenario.node[1].veinsmobility 	minSpeed 	0
scalar RSUExampleScenario.node[1].veinsmobility 	maxSpeed 	13.999798448433
scalar RSUExampleScenario.node[1].veinsmobility 	totalDistance 	3080.3991743946
scalar RSUExampleScenario.node[1].veinsmobility 	totalCO2Emission 	731.67625844529
scalar RSUExampleScenario.node[10].veinsmobility 	startTime 	24.2
scalar RSUExampleScenario.node[10].veinsmobility 	totalTime 	325.8
scalar RSUExampleScenario.node[10].veinsmobility 	stopTime 	350
scalar RSUExampleScenario.node[10].veinsmobility 	minSpeed 	0
scalar RSUExampleScenario.node[10].veinsmobility 	maxSpeed 	13.999993444802
scalar RSUExampleScenario.node[10].veinsmobility 	totalDistance 	2791.2916939691
scalar RSUExampleScenario.node[10].veinsmobility 	totalCO2Emission 	662.39621019671
scalar RSUExampleScenario.node[11].veinsmobility 	startTime 	26.6
scalar RSUExampleScenario.node[11].veinsmobility 	totalTime 	323.4
scalar RSUExampleScenario.node[11].veinsmobility 	stopTime 	350
scalar RSUExampleScenario.node[11].veinsmobility 	minSpeed 	0
scalar RSUExampleScenario.node[11].veinsmobility 	maxSpeed 	13.999775706311
scalar RSUExampleScenario.node[11].veinsmobility 	totalDistance 	2758.9897876231
scalar RSUExampleScenario.node[11].veinsmobility 	totalCO2Emission 	656.42628055233
scalar RSUExampleScenario.node[12].veinsmobility 	startTime 	29
scalar RSUExampleScenario.node[12].veinsmobility 	totalTime 	321
scalar RSUExampleScenario.node[12].veinsmobility 	stopTime 	350
scalar RSUExampleScenario.node[12].veinsmobility 	minSpeed 	0
scalar RSUExampleScenario.node[12].veinsmobility 	maxSpeed 	13.999992218434
scalar RSUExampleScenario.node[12].veinsmobility 	totalDistance 	2719.5595960808
scalar RSUExampleScenario.node[12].veinsmobility 	totalCO2Emission 	647.90046217971
scalar RSUExampleScenario.node[13].veinsmobility 	startTime 	31.4
scalar RSUExampleScenario.node[13].veinsmobility 	totalTime 	318.6
scalar RSUExampleScenario.node[13].veinsmobility 	stopTime 	350
scalar RSUExampleScenario.node[13].veinsmobility 	minSpeed 	0
scalar RSUExampleScenario.node[13].veinsmobility 	maxSpeed 	13.99998035281
scalar RSUExampleScenario.node[13].veinsmobility 	totalDistance 	2685.0205443948
scalar RSUExampleScenario.node[13].veinsmobility 	totalCO2Emission 	643.14955659671
scalar RSUExampleScenario.node[14].veinsmobility 	startTime 	33.8
scalar RSUExampleScenario.node[14].veinsmobility 	totalTime 	316.2
scalar RSUExampleScenario.node[14].veinsmobility 	stopTime 	350
scalar RSUExampleScenario.node[14].veinsmobility 	minSpeed 	0
scalar RSUExampleScenario.node[14].veinsmobility 	maxSpeed 	13.99999909647
scalar RSUExampleScenario.node[14].veinsmobility 	totalDistance 	2649.296589838
scalar RSUExampleScenario.node[14].veinsmobility 	totalCO2Emission 	640.08519073469
scalar RSUExampleScenario.node[15].veinsmobility 	startTime 	36.2
scalar RSUExampleScenario.node[15].veinsmobility 	totalTime 	313.8
scalar RSUExampleScenario.node[15].veinsmobility 	stopTime 	350
scalar RSUExampleScenario.node[15].veinsmobility 	minSpeed 	0
scalar RSUExampleScenario.node[15].veinsmobility 	maxSpeed 	13.999883571689
scalar RSUExampleScenario.node[15].veinsmobility 	totalDistance 	2618.8189200696
scalar RSUExampleScenario.node[15].veinsmobility 	totalCO2Emission 	633.48874887351
scalar RSUExampleScenario.node[16].veinsmobility 	startTime 	38.6
scalar RSUExampleScenario.node[16].veinsmobility 	totalTime 	311.4
scalar RSUExampleScenario.node[16].veinsmobility 	stopTime 	350
scalar RSUExampleScenario.node[16].veinsmobility 	minSpeed 	0
scalar RSUExampleScenario.node[16].veinsmobility 	maxSpeed 	13.999702952944
scalar RSUExampleScenario.node[16].veinsmobility 	totalDistance 	2579.8840911657
scalar RSUExampleScenario.node[16].veinsmobility 	totalCO2Emission 	626.54032227162
scalar RSUExampleScenario.node[17].veinsmobility 	startTime 	41
scalar RSUExampleScenario.node[17].veinsmobility 	totalTime 	309
scalar RSUExampleScenario.node[17].veinsmobility 	stopTime 	350
scalar RSUExampleScenario.node[17].veinsmobility 	minSpeed 	0
scalar RSUExampleScenario.node[17].veinsmobility 	maxSpeed 	13.999916311931
scalar RSUExampleScenario.node[17].veinsmobility 	totalDistance 	2542.2370508677
scalar RSUExampleScenario.node[17].veinsmobility 	totalCO2Emission 	618.73972825172
scalar RSUExampleScenario.node[18].veinsmobility 	startTime 	43.4
scalar RSUExampleScenario.node[18].veinsmobility 	totalTime 	306.6
scalar RSUExampleScenario.node[18].veinsmobility 	stopTime 	350
scalar RSUExampleScenario.node[18].veinsmobility 	minSpeed 	0
scalar RSUExampleScenario.node[18].veinsmobility 	maxSpeed 	13.999997773487
scalar RSUExampleScenario.node[18].veinsmobility 	totalDistance 	2506.040724236
scalar RSUExampleScenario.node[18].veinsmobility 	totalCO2Emission 	614.86982891957
scalar RSUExampleScenario.node[19].veinsmobility 	startTime 	45.8
scalar RSUExampleScenario.node[19].veinsmobility 	totalTime 	304.2
scalar RSUExampleScenario.node[19].veinsmobility 	stopTime 	350
scalar RSUExampleScenario.node[19].veinsmobility 	minSpeed 	0
scalar RSUExampleScenario.node[19].veinsmobility 	maxSpeed 	13.999825525626
scalar RSUExampleScenario.node[19].veinsmobility 	totalDistance 	2473.6999012256
scalar RSUExampleScenario.node[19].veinsmobility 	totalCO2Emission 	610.58876456998
scalar RSUExampleScenario.node[2].veinsmobility 	startTime 	4.9
scalar RSUExampleScenario.node[2].veinsmobility 	totalTime 	345.1
scalar RSUExampleScenario.node[2].veinsmobility 	stopTime 	350
scalar RSUExampleScenario.node[2].veinsmobility 	minSpeed 	0
scalar RSUExampleScenario.node[2].veinsmobility 	maxSpeed 	13.999990434924
scalar RSUExampleScenario.node[2].veinsmobility 	totalDistance 	3035.1666469718
scalar RSUExampleScenario.node[2].veinsmobility 	totalCO2Emission 	720.99739187767
scalar RSUExampleScenario.node[20].veinsmobility 	startTime 	48.3
scalar RSUExampleScenario.node[20].veinsmobility 	totalTime 	301.7
scalar RSUExampleScenario.node[20].veinsmobility 	stopTime 	350
scalar RSUExampleScenario.node[20].veinsmobility 	minSpeed 	0
scalar RSUExampleScenario.node[20].veinsmobility 	maxSpeed 	13.999879210859
scalar RSUExampleScenario.node[20].veinsmobility 	totalDistance 	2436.9098362154
scalar RSUExampleScenario.node[20].veinsmobility 	totalCO2Emission 	604.04877584614
scalar RSUExampleScenario.node[21].veinsmobility 	startTime 	50.7
scalar RSUExampleScenario.node[21].veinsmobility 	totalTime 	299.3
scalar RSUExampleScenario.node[21].veinsmobility 	stopTime 	350
scalar RSUExampleScenario.node[21].veinsmobility 	minSpeed 	0
scalar RSUExampleScenario.node[21].veinsmobility 	maxSpeed 	13.999993562878
scalar RSUExampleScenario.node[21].veinsmobility 	totalDistance 	2408.50266918
scalar RSUExampleScenario.node[21].veinsmobility 	totalCO2Emission 	597.57883239653
scalar RSUExampleScenario.node[22].veinsmobility 	startTime 	53.1
scalar RSUExampleScenario.node[22].veinsmobility 	totalTime 	296.9
scalar RSUExampleScenario.node[22].veinsmobility 	stopTime 	350
scalar RSUExampleScenario.node[22].veinsmobility 	minSpeed 	0
scalar RSUExampleScenario.node[22].veinsmobility 	maxSpeed 	13.999937596649
scalar RSUExampleScenario.node[22].veinsmobility 	totalDistance 	2370.1443706288
scalar RSUExampleScenario.node[22].veinsmobility 	totalCO2Emission 	591.50610387105
scalar RSUExampleScenario.node[23].veinsmobility 	startTime 	55.5
scalar RSUExampleScenario.node[23].veinsmobility 	totalTime 	294.5
scalar RSUExampleScenario.node[23].veinsmobility 	stopTime 	350
scalar RSUExampleScenario.node[23].veinsmobility 	minSpeed 	0
scalar RSUExampleScenario.node[23].veinsmobility 	maxSpeed 	13.999954327247
scalar RSUExampleScenario.node[23].veinsmobility 	totalDistance 	2341.5607115686
scalar RSUExampleScenario.node[23].veinsmobility 	totalCO2Emission 	587.71127380629
scalar RSUExampleScenario.node[24].veinsmobility 	startTime 	57.9
scalar RSUExampleScenario.node[24].veinsmobility 	totalTime 	292.1
scalar RSUExampleScenario.node[24].veinsmobility 	stopTime 	350
scalar RSUExampleScenario.node[24].veinsmobility 	minSpeed 	0
scalar RSUExampleScenario.node[24].veinsmobility 	maxSpeed 	13.999968271405
scalar RSUExampleScenario.node[24].veinsmobility 	totalDistance 	2303.845045011
scalar RSUExampleScenario.node[24].veinsmobility 	totalCO2Emission 	578.22059075211
scalar RSUExampleScenario.node[25].veinsmobility 	startTime 	60.3
scalar RSUExampleScenario.node[25].veinsmobility 	totalTime 	289.7
scalar RSUExampleScenario.node[25].veinsmobility 	stopTime 	350
scalar RSUExampleScenario.node[25].veinsmobility 	minSpeed 	0
scalar RSUExampleScenario.node[25].veinsmobility 	maxSpeed 	13.999979412868
scalar RSUExampleScenario.node[25].veinsmobility 	totalDistance 	2275.013391256
scalar RSUExampleScenario.node[25].veinsmobility 	totalCO2Emission 	574.61837034798
scalar RSUExampleScenario.node[26].veinsmobility 	startTime 	62.7
scalar RSUExampleScenario.node[26].veinsmobility 	totalTime 	287.3
scalar RSUExampleScenario.node[26].veinsmobility 	stopTime 	350
scalar RSUExampleScenario.node[26].veinsmobility 	minSpeed 	0
scalar RSUExampleScenario.node[26].veinsmobility 	maxSpeed 	13.999939123699
scalar RSUExampleScenario.node[26].veinsmobility 	totalDistance 	2235.3376440748
scalar RSUExampleScenario.node[26].veinsmobility 	totalCO2Emission 	568.41127428763
scalar RSUExampleScenario.node[27].veinsmobility 	startTime 	65.1
scalar RSUExampleScenario.node[27].veinsmobility 	totalTime 	284.9
scalar RSUExampleScenario.node[27].veinsmobility 	stopTime 	350
scalar RSUExampleScenario.node[27].veinsmobility 	minSpeed 	0
scalar RSUExampleScenario.node[27].veinsmobility 	maxSpeed 	13.999969431062
scalar RSUExampleScenario.node[27].veinsmobility 	totalDistance 	2204.7335253053
scalar RSUExampleScenario.node[27].veinsmobility 	totalCO2Emission 	562.65470371496
scalar RSUExampleScenario.node[28].veinsmobility 	startTime 	67.5
scalar RSUExampleScenario.node[28].veinsmobility 	totalTime 	282.5
scalar RSUExampleScenario.node[28].veinsmobility 	stopTime 	350
scalar RSUExampleScenario.node[28].veinsmobility 	minSpeed 	0
scalar RSUExampleScenario.node[28].veinsmobility 	maxSpeed 	13.999993557127
scalar RSUExampleScenario.node[28].veinsmobility 	totalDistance 	2168.8520049526
scalar RSUExampleScenario.node[28].veinsmobility 	totalCO2Emission 	556.68019897431
scalar RSUExampleScenario.node[29].veinsmobility 	startTime 	69.9
scalar RSUExampleScenario.node[29].veinsmobility 	totalTime 	280.1
scalar RSUExampleScenario.node[29].veinsmobility 	stopTime 	350
scalar RSUExampleScenario.node[29].veinsmobility 	minSpeed 	0
scalar RSUExampleScenario.node[29].veinsmobility 	maxSpeed 	13.99990739695
scalar RSUExampleScenario.node[29].veinsmobility 	totalDistance 	2134.7392950718
scalar RSUExampleScenario.node[29].veinsmobility 	totalCO2Emission 	551.71452245218
scalar RSUExampleScenario.node[3].veinsmobility 	startTime 	7.3
scalar RSUExampleScenario.node[3].veinsmobility 	totalTime 	342.7
scalar RSUExampleScenario.node[3].veinsmobility 	stopTime 	350
scalar RSUExampleScenario.node[3].veinsmobility 	minSpeed 	0
scalar RSUExampleScenario.node[3].veinsmobility 	maxSpeed 	13.999985365672
scalar RSUExampleScenario.node[3].veinsmobility 	totalDistance 	2996.6036519963
scalar RSUExampleScenario.node[3].veinsmobility 	totalCO2Emission 	720.28512107431
scalar RSUExampleScenario.node[30].veinsmobility 	startTime 	72.4
scalar RSUExampleScenario.node[30].veinsmobility 	totalTime 	277.6
scalar RSUExampleScenario.node[30].veinsmobility 	stopTime 	350
scalar RSUExampleScenario.node[30].veinsmobility 	minSpeed 	0
scalar RSUExampleScenario.node[30].veinsmobility 	maxSpeed 	13.999951703406
scalar RSUExampleScenario.node[30].veinsmobility 	totalDistance 	2098.5688258504
scalar RSUExampleScenario.node[30].veinsmobility 	totalCO2Emission 	549.31123495173
scalar RSUExampleScenario.node[31].veinsmobility 	startTime 	74.8
scalar RSUExampleScenario.node[31].veinsmobility 	totalTime 	275.2
scalar RSUExampleScenario.node[31].veinsmobility 	stopTime 	350
scalar RSUExampleScenario.node[31].veinsmobility 	minSpeed 	0
scalar RSUExampleScenario.node[31].veinsmobility 	maxSpeed 	13.999964490298
scalar RSUExampleScenario.node[31].veinsmobility 	totalDistance 	2068.9966856443
scalar RSUExampleScenario.node[31].veinsmobility 	totalCO2Emission 	540.64573503237
scalar RSUExampleScenario.node[32].veinsmobility 	startTime 	77.2
scalar RSUExampleScenario.node[32].veinsmobility 	totalTime 	272.8
scalar RSUExampleScenario.node[32].veinsmobility 	stopTime 	350
scalar RSUExampleScenario.node[32].veinsmobility 	minSpeed 	0
scalar RSUExampleScenario.node[32].veinsmobility 	maxSpeed 	13.999920905551
scalar RSUExampleScenario.node[32].veinsmobility 	totalDistance 	2034.317898963
scalar RSUExampleScenario.node[32].veinsmobility 	totalCO2Emission 	538.11392442867
scalar RSUExampleScenario.node[33].veinsmobility 	startTime 	79.6
scalar RSUExampleScenario.node[33].veinsmobility 	totalTime 	270.4
scalar RSUExampleScenario.node[33].veinsmobility 	stopTime 	350
scalar RSUExampleScenario.node[33].veinsmobility 	minSpeed 	0
scalar RSUExampleScenario.node[33].veinsmobility 	maxSpeed 	13.999773932667
scalar RSUExampleScenario.node[33].veinsmobility 	totalDistance 	1999.2658600316
scalar RSUExampleScenario.node[33].veinsmobility 	totalCO2Emission 	527.91019359821
scalar RSUExampleScenario.node[34].veinsmobility 	startTime 	82
scalar RSUExampleScenario.node[34].veinsmobility 	totalTime 	268
scalar RSUExampleScenario.node[34].veinsmobility 	stopTime 	350
scalar RSUExampleScenario.node[34].veinsmobility 	minSpeed 	0
scalar RSUExampleScenario.node[34].veinsmobility 	maxSpeed 	13.999865153197
scalar RSUExampleScenario.node[34].veinsmobility 	totalDistance 	1966.0878677374
scalar RSUExampleScenario.node[34].veinsmobility 	totalCO2Emission 	522.03639288176
scalar RSUExampleScenario.node[35].veinsmobility 	startTime 	84.4
scalar RSUExampleScenario.node[35].veinsmobility 	totalTime 	265.6
scalar RSUExampleScenario.node[35].veinsmobility 	stopTime 	350
scalar RSUExampleScenario.node[35].veinsmobility 	minSpeed 	0
scalar RSUExampleScenario.node[35].veinsmobility 	maxSpeed 	13.999958774492
scalar RSUExampleScenario.node[35].veinsmobility 	totalDistance 	1932.102704058
scalar RSUExampleScenario.node[35].veinsmobility 	totalCO2Emission 	514.96057783305
scalar RSUExampleScenario.node[36].veinsmobility 	startTime 	86.8
scalar RSUExampleScenario.node[36].veinsmobility 	totalTime 	263.2
scalar RSUExampleScenario.node[36].veinsmobility 	stopTime 	350
scalar RSUExampleScenario.node[36].veinsmobility 	minSpeed 	0
scalar RSUExampleScenario.node[36].veinsmobility 	maxSpeed 	13.999936462629
scalar RSUExampleScenario.node[36].veinsmobility 	totalDistance 	1899.8105027731
scalar RSUExampleScenario.node[36].veinsmobility 	totalCO2Emission 	517.11194856351
scalar RSUExampleScenario.node[37].veinsmobility 	startTime 	89.2
scalar RSUExampleScenario.node[37].veinsmobility 	totalTime 	260.8
scalar RSUExampleScenario.node[37].veinsmobility 	stopTime 	350
scalar RSUExampleScenario.node[37].veinsmobility 	minSpeed 	0
scalar RSUExampleScenario.node[37].veinsmobility 	maxSpeed 	13.999961255467
scalar RSUExampleScenario.node[37].veinsmobility 	totalDistance 	1863.6276911679
scalar RSUExampleScenario.node[37].veinsmobility 	totalCO2Emission 	505.62564369239
scalar RSUExampleScenario.node[38].veinsmobility 	startTime 	91.6
scalar RSUExampleScenario.node[38].veinsmobility 	totalTime 	258.4
scalar RSUExampleScenario.node[38].veinsmobility 	stopTime 	350
scalar RSUExampleScenario.node[38].veinsmobility 	minSpeed 	0
scalar RSUExampleScenario.node[38].veinsmobility 	maxSpeed 	13.9993521014
scalar RSUExampleScenario.node[38].veinsmobility 	totalDistance 	1831.4208594272
scalar RSUExampleScenario.node[38].veinsmobility 	totalCO2Emission 	502.95073777187
scalar RSUExampleScenario.node[39].veinsmobility 	startTime 	94
scalar RSUExampleScenario.node[39].veinsmobility 	totalTime 	256
scalar RSUExampleScenario.node[39].veinsmobility 	stopTime 	350
scalar RSUExampleScenario.node[39].veinsmobility 	minSpeed 	0
scalar RSUExampleScenario.node[39].veinsmobility 	maxSpeed 	13.999774447163
scalar RSUExampleScenario.node[39].veinsmobility 	totalDistance 	1797.1019738068
scalar RSUExampleScenario.node[39].veinsmobility 	totalCO2Emission 	490.99938412694
scalar RSUExampleScenario.node[4].veinsmobility 	startTime 	9.7
scalar RSUExampleScenario.node[4].veinsmobility 	totalTime 	340.3
scalar RSUExampleScenario.node[4].veinsmobility 	stopTime 	350
scalar RSUExampleScenario.node[4].veinsmobility 	minSpeed 	0
scalar RSUExampleScenario.node[4].veinsmobility 	maxSpeed 	13.999957980139
scalar RSUExampleScenario.node[4].veinsmobility 	totalDistance 	2944.1354492636
scalar RSUExampleScenario.node[4].veinsmobility 	totalCO2Emission 	700.24174321188
scalar RSUExampleScenario.node[40].veinsmobility 	startTime 	96.5
scalar RSUExampleScenario.node[40].veinsmobility 	totalTime 	253.5
scalar RSUExampleScenario.node[40].veinsmobility 	stopTime 	350
scalar RSUExampleScenario.node[40].veinsmobility 	minSpeed 	0
scalar RSUExampleScenario.node[40].veinsmobility 	maxSpeed 	13.999894868033
scalar RSUExampleScenario.node[40].veinsmobility 	totalDistance 	1764.1923911249
scalar RSUExampleScenario.node[40].veinsmobility 	totalCO2Emission 	489.51308821453
scalar RSUExampleScenario.node[41].veinsmobility 	startTime 	98.9
scalar RSUExampleScenario.node[41].veinsmobility 	totalTime 	251.1
scalar RSUExampleScenario.node[41].veinsmobility 	stopTime 	350
scalar RSUExampleScenario.node[41].veinsmobility 	minSpeed 	0
scalar RSUExampleScenario.node[41].veinsmobility 	maxSpeed 	13.999971106485
scalar RSUExampleScenario.node[41].veinsmobility 	totalDistance 	1729.3244228798
scalar RSUExampleScenario.node[41].veinsmobility 	totalCO2Emission 	482.8642707947
scalar RSUExampleScenario.node[42].veinsmobility 	startTime 	101.3
scalar RSUExampleScenario.node[42].veinsmobility 	totalTime 	248.7
scalar RSUExampleScenario.node[42].veinsmobility 	stopTime 	350
scalar RSUExampleScenario.node[42].veinsmobility 	minSpeed 	0
scalar RSUExampleScenario.node[42].veinsmobility 	maxSpeed 	13.999969182773
scalar RSUExampleScenario.node[42].veinsmobility 	totalDistance 	1695.7535880912
scalar RSUExampleScenario.node[42].veinsmobility 	totalCO2Emission 	480.04635898764
scalar RSUExampleScenario.node[43].veinsmobility 	startTime 	103.7
scalar RSUExampleScenario.node[43].veinsmobility 	totalTime 	246.3
scalar RSUExampleScenario.node[43].veinsmobility 	stopTime 	350
scalar RSUExampleScenario.node[43].veinsmobility 	minSpeed 	0
scalar RSUExampleScenario.node[43].veinsmobility 	maxSpeed 	13.999897878941
scalar RSUExampleScenario.node[43].veinsmobility 	totalDistance 	1662.6822504582
scalar RSUExampleScenario.node[43].veinsmobility 	totalCO2Emission 	472.24105768788
scalar RSUExampleScenario.node[44].veinsmobility 	startTime 	106.1
scalar RSUExampleScenario.node[44].veinsmobility 	totalTime 	243.9
scalar RSUExampleScenario.node[44].veinsmobility 	stopTime 	350
scalar RSUExampleScenario.node[44].veinsmobility 	minSpeed 	0
scalar RSUExampleScenario.node[44].veinsmobility 	maxSpeed 	13.999947338582
scalar RSUExampleScenario.node[44].veinsmobility 	totalDistance 	1628.007975583
scalar RSUExampleScenario.node[44].veinsmobility 	totalCO2Emission 	466.9525982097
scalar RSUExampleScenario.node[45].veinsmobility 	startTime 	108.5
scalar RSUExampleScenario.node[45].veinsmobility 	totalTime 	241.5
scalar RSUExampleScenario.node[45].veinsmobility 	stopTime 	350
scalar RSUExampleScenario.node[45].veinsmobility 	minSpeed 	0
scalar RSUExampleScenario.node[45].veinsmobility 	maxSpeed 	13.998592775455
scalar RSUExampleScenario.node[45].veinsmobility 	totalDistance 	1595.2396901667
scalar RSUExampleScenario.node[45].veinsmobility 	totalCO2Emission 	459.99422550827
scalar RSUExampleScenario.node[46].veinsmobility 	startTime 	110.9
scalar RSUExampleScenario.node[46].veinsmobility 	totalTime 	239.1
scalar RSUExampleScenario.node[46].veinsmobility 	stopTime 	350
scalar RSUExampleScenario.node[46].veinsmobility 	minSpeed 	0
scalar RSUExampleScenario.node[46].veinsmobility 	maxSpeed 	13.999838519187
scalar RSUExampleScenario.node[46].veinsmobility 	totalDistance 	1561.4165217395
scalar RSUExampleScenario.node[46].veinsmobility 	totalCO2Emission 	455.43167065671
scalar RSUExampleScenario.node[47].veinsmobility 	startTime 	113.3
scalar RSUExampleScenario.node[47].veinsmobility 	totalTime 	236.7
scalar RSUExampleScenario.node[47].veinsmobility 	stopTime 	350
scalar RSUExampleScenario.node[47].veinsmobility 	minSpeed 	0
scalar RSUExampleScenario.node[47].veinsmobility 	maxSpeed 	13.999942921726
scalar RSUExampleScenario.node[47].veinsmobility 	totalDistance 	1527.7849250229
scalar RSUExampleScenario.node[47].veinsmobility 	totalCO2Emission 	447.14184986735
scalar RSUExampleScenario.node[48].veinsmobility 	startTime 	115.7
scalar RSUExampleScenario.node[48].veinsmobility 	totalTime 	234.3
scalar RSUExampleScenario.node[48].veinsmobility 	stopTime 	350
scalar RSUExampleScenario.node[48].veinsmobility 	minSpeed 	0
scalar RSUExampleScenario.node[48].veinsmobility 	maxSpeed 	13.999894928872
scalar RSUExampleScenario.node[48].veinsmobility 	totalDistance 	1495.4148010052
scalar RSUExampleScenario.node[48].veinsmobility 	totalCO2Emission 	445.30272382358
scalar RSUExampleScenario.node[49].veinsmobility 	startTime 	118.1
scalar RSUExampleScenario.node[49].veinsmobility 	totalTime 	231.9
scalar RSUExampleScenario.node[49].veinsmobility 	stopTime 	350
scalar RSUExampleScenario.node[49].veinsmobility 	minSpeed 	0
scalar RSUExampleScenario.node[49].veinsmobility 	maxSpeed 	13.999849329337
scalar RSUExampleScenario.node[49].veinsmobility 	totalDistance 	1460.3733630844
scalar RSUExampleScenario.node[49].veinsmobility 	totalCO2Emission 	436.95707215839
scalar RSUExampleScenario.node[5].veinsmobility 	startTime 	12.1
scalar RSUExampleScenario.node[5].veinsmobility 	totalTime 	337.9
scalar RSUExampleScenario.node[5].veinsmobility 	stopTime 	350
scalar RSUExampleScenario.node[5].veinsmobility 	minSpeed 	0
scalar RSUExampleScenario.node[5].veinsmobility 	maxSpeed 	13.999953323016
scalar RSUExampleScenario.node[5].veinsmobility 	totalDistance 	2917.3362068406
scalar RSUExampleScenario.node[5].veinsmobility 	totalCO2Emission 	686.53798826374
scalar RSUExampleScenario.node[50].veinsmobility 	startTime 	120.6
scalar RSUExampleScenario.node[50].veinsmobility 	totalTime 	229.4
scalar RSUExampleScenario.node[50].veinsmobility 	stopTime 	350
scalar RSUExampleScenario.node[50].veinsmobility 	minSpeed 	0
scalar RSUExampleScenario.node[50].veinsmobility 	maxSpeed 	13.999878379307
scalar RSUExampleScenario.node[50].veinsmobility 	totalDistance 	1426.3382204794
scalar RSUExampleScenario.node[50].veinsmobility 	totalCO2Emission 	433.27826460405
scalar RSUExampleScenario.node[51].veinsmobility 	startTime 	123
scalar RSUExampleScenario.node[51].veinsmobility 	totalTime 	227
scalar RSUExampleScenario.node[51].veinsmobility 	stopTime 	350
scalar RSUExampleScenario.node[51].veinsmobility 	minSpeed 	0
scalar RSUExampleScenario.node[51].veinsmobility 	maxSpeed 	13.999910743984
scalar RSUExampleScenario.node[51].veinsmobility 	totalDistance 	1392.757474019
scalar RSUExampleScenario.node[51].veinsmobility 	totalCO2Emission 	426.94358990962
scalar RSUExampleScenario.node[52].veinsmobility 	startTime 	125.4
scalar RSUExampleScenario.node[52].veinsmobility 	totalTime 	224.6
scalar RSUExampleScenario.node[52].veinsmobility 	stopTime 	350
scalar RSUExampleScenario.node[52].veinsmobility 	minSpeed 	0
scalar RSUExampleScenario.node[52].veinsmobility 	maxSpeed 	13.999790224924
scalar RSUExampleScenario.node[52].veinsmobility 	totalDistance 	1358.7009069508
scalar RSUExampleScenario.node[52].veinsmobility 	totalCO2Emission 	418.92506805158
scalar RSUExampleScenario.node[53].veinsmobility 	startTime 	127.8
scalar RSUExampleScenario.node[53].veinsmobility 	totalTime 	222.2
scalar RSUExampleScenario.node[53].veinsmobility 	stopTime 	350
scalar RSUExampleScenario.node[53].veinsmobility 	minSpeed 	0
scalar RSUExampleScenario.node[53].veinsmobility 	maxSpeed 	13.99996885034
scalar RSUExampleScenario.node[53].veinsmobility 	totalDistance 	1326.0560888912
scalar RSUExampleScenario.node[53].veinsmobility 	totalCO2Emission 	415.95816342218
scalar RSUExampleScenario.node[54].veinsmobility 	startTime 	130.2
scalar RSUExampleScenario.node[54].veinsmobility 	totalTime 	219.8
scalar RSUExampleScenario.node[54].veinsmobility 	stopTime 	350
scalar RSUExampleScenario.node[54].veinsmobility 	minSpeed 	0
scalar RSUExampleScenario.node[54].veinsmobility 	maxSpeed 	13.999761695836
scalar RSUExampleScenario.node[54].veinsmobility 	totalDistance 	1292.558890402
scalar RSUExampleScenario.node[54].veinsmobility 	totalCO2Emission 	409.823478377
scalar RSUExampleScenario.node[55].veinsmobility 	startTime 	132.6
scalar RSUExampleScenario.node[55].veinsmobility 	totalTime 	217.4
scalar RSUExampleScenario.node[55].veinsmobility 	stopTime 	350
scalar RSUExampleScenario.node[55].veinsmobility 	minSpeed 	0
scalar RSUExampleScenario.node[55].veinsmobility 	maxSpeed 	13.999220114013
scalar RSUExampleScenario.node[55].veinsmobility 	totalDistance 	1260.0573017568
scalar RSUExampleScenario.node[55].veinsmobility 	totalCO2Emission 	404.234310863
scalar RSUExampleScenario.node[56].veinsmobility 	startTime 	135
scalar RSUExampleScenario.node[56].veinsmobility 	totalTime 	215
scalar RSUExampleScenario.node[56].veinsmobility 	stopTime 	350
scalar RSUExampleScenario.node[56].veinsmobility 	minSpeed 	0
scalar RSUExampleScenario.node[56].veinsmobility 	maxSpeed 	13.999871681728
scalar RSUExampleScenario.node[56].veinsmobility 	totalDistance 	1225.8949010909
scalar RSUExampleScenario.node[56].veinsmobility 	totalCO2Emission 	398.46715621726
scalar RSUExampleScenario.node[57].veinsmobility 	startTime 	137.4
scalar RSUExampleScenario.node[57].veinsmobility 	totalTime 	212.6
scalar RSUExampleScenario.node[57].veinsmobility 	stopTime 	350
scalar RSUExampleScenario.node[57].veinsmobility 	minSpeed 	0
scalar RSUExampleScenario.node[57].veinsmobility 	maxSpeed 	13.999602001319
scalar RSUExampleScenario.node[57].veinsmobility 	totalDistance 	1191.0812244521
scalar RSUExampleScenario.node[57].veinsmobility 	totalCO2Emission 	393.99333908522
scalar RSUExampleScenario.node[58].veinsmobility 	startTime 	139.8
scalar RSUExampleScenario.node[58].veinsmobility 	totalTime 	210.2
scalar RSUExampleScenario.node[58].veinsmobility 	stopTime 	350
scalar RSUExampleScenario.node[58].veinsmobility 	minSpeed 	0
scalar RSUExampleScenario.node[58].veinsmobility 	maxSpeed 	13.999751555759
scalar RSUExampleScenario.node[58].veinsmobility 	totalDistance 	1157.4712833322
scalar RSUExampleScenario.node[58].veinsmobility 	totalCO2Emission 	388.40947169069
scalar RSUExampleScenario.node[59].veinsmobility 	startTime 	142.2
scalar RSUExampleScenario.node[59].veinsmobility 	totalTime 	207.8
scalar RSUExampleScenario.node[59].veinsmobility 	stopTime 	350
scalar RSUExampleScenario.node[59].veinsmobility 	minSpeed 	0
scalar RSUExampleScenario.node[59].veinsmobility 	maxSpeed 	13.999815478078
scalar RSUExampleScenario.node[59].veinsmobility 	totalDistance 	1123.7752566925
scalar RSUExampleScenario.node[59].veinsmobility 	totalCO2Emission 	381.39515474667
scalar RSUExampleScenario.node[6].veinsmobility 	startTime 	14.5
scalar RSUExampleScenario.node[6].veinsmobility 	totalTime 	335.5
scalar RSUExampleScenario.node[6].veinsmobility 	stopTime 	350
scalar RSUExampleScenario.node[6].veinsmobility 	minSpeed 	0
scalar RSUExampleScenario.node[6].veinsmobility 	maxSpeed 	13.999861918851
scalar RSUExampleScenario.node[6].veinsmobility 	totalDistance 	2900.9795357747
scalar RSUExampleScenario.node[6].veinsmobility 	totalCO2Emission 	675.72500485513
scalar RSUExampleScenario.node[60].veinsmobility 	startTime 	144.7
scalar RSUExampleScenario.node[60].veinsmobility 	totalTime 	205.3
scalar RSUExampleScenario.node[60].veinsmobility 	stopTime 	350
scalar RSUExampleScenario.node[60].veinsmobility 	minSpeed 	0
scalar RSUExampleScenario.node[60].veinsmobility 	maxSpeed 	13.999684306595
scalar RSUExampleScenario.node[60].veinsmobility 	totalDistance 	1090.1774666615
scalar RSUExampleScenario.node[60].veinsmobility 	totalCO2Emission 	376.19187821713
scalar RSUExampleScenario.node[61].veinsmobility 	startTime 	147.1
scalar RSUExampleScenario.node[61].veinsmobility 	totalTime 	202.9
scalar RSUExampleScenario.node[61].veinsmobility 	stopTime 	350
scalar RSUExampleScenario.node[61].veinsmobility 	minSpeed 	0
scalar RSUExampleScenario.node[61].veinsmobility 	maxSpeed 	13.999863760294
scalar RSUExampleScenario.node[61].veinsmobility 	totalDistance 	1058.1115461901
scalar RSUExampleScenario.node[61].veinsmobility 	totalCO2Emission 	372.70059534332
scalar RSUExampleScenario.node[62].veinsmobility 	startTime 	149.5
scalar RSUExampleScenario.node[62].veinsmobility 	totalTime 	200.5
scalar RSUExampleScenario.node[62].veinsmobility 	stopTime 	350
scalar RSUExampleScenario.node[62].veinsmobility 	minSpeed 	0
scalar RSUExampleScenario.node[62].veinsmobility 	maxSpeed 	13.999858816443
scalar RSUExampleScenario.node[62].veinsmobility 	totalDistance 	1023.1591732685
scalar RSUExampleScenario.node[62].veinsmobility 	totalCO2Emission 	365.92792792844
scalar RSUExampleScenario.node[63].veinsmobility 	startTime 	151.9
scalar RSUExampleScenario.node[63].veinsmobility 	totalTime 	198.1
scalar RSUExampleScenario.node[63].veinsmobility 	stopTime 	350
scalar RSUExampleScenario.node[63].veinsmobility 	minSpeed 	0
scalar RSUExampleScenario.node[63].veinsmobility 	maxSpeed 	13.998572037406
scalar RSUExampleScenario.node[63].veinsmobility 	totalDistance 	986.20842610792
scalar RSUExampleScenario.node[63].veinsmobility 	totalCO2Emission 	351.73630466032
scalar RSUExampleScenario.node[64].veinsmobility 	startTime 	154.3
scalar RSUExampleScenario.node[64].veinsmobility 	totalTime 	195.7
scalar RSUExampleScenario.node[64].veinsmobility 	stopTime 	350
scalar RSUExampleScenario.node[64].veinsmobility 	minSpeed 	0
scalar RSUExampleScenario.node[64].veinsmobility 	maxSpeed 	13.999639519786
scalar RSUExampleScenario.node[64].veinsmobility 	totalDistance 	952.80188669554
scalar RSUExampleScenario.node[64].veinsmobility 	totalCO2Emission 	339.12552511315
scalar RSUExampleScenario.node[65].veinsmobility 	startTime 	156.7
scalar RSUExampleScenario.node[65].veinsmobility 	totalTime 	193.3
scalar RSUExampleScenario.node[65].veinsmobility 	stopTime 	350
scalar RSUExampleScenario.node[65].veinsmobility 	minSpeed 	0
scalar RSUExampleScenario.node[65].veinsmobility 	maxSpeed 	13.999791042856
scalar RSUExampleScenario.node[65].veinsmobility 	totalDistance 	940.19242954944
scalar RSUExampleScenario.node[65].veinsmobility 	totalCO2Emission 	330.13280960731
scalar RSUExampleScenario.node[66].veinsmobility 	startTime 	159.1
scalar RSUExampleScenario.node[66].veinsmobility 	totalTime 	190.9
scalar RSUExampleScenario.node[66].veinsmobility 	stopTime 	350
scalar RSUExampleScenario.node[66].veinsmobility 	minSpeed 	0
scalar RSUExampleScenario.node[66].veinsmobility 	maxSpeed 	13.999127552339
scalar RSUExampleScenario.node[66].veinsmobility 	totalDistance 	927.97840423481
scalar RSUExampleScenario.node[66].veinsmobility 	totalCO2Emission 	327.95260385261
scalar RSUExampleScenario.node[67].veinsmobility 	startTime 	161.5
scalar RSUExampleScenario.node[67].veinsmobility 	totalTime 	188.5
scalar RSUExampleScenario.node[67].veinsmobility 	stopTime 	350
scalar RSUExampleScenario.node[67].veinsmobility 	minSpeed 	0
scalar RSUExampleScenario.node[67].veinsmobility 	maxSpeed 	13.998971688689
scalar RSUExampleScenario.node[67].veinsmobility 	totalDistance 	912.63134670572
scalar RSUExampleScenario.node[67].veinsmobility 	totalCO2Emission 	324.86096961255
scalar RSUExampleScenario.node[68].veinsmobility 	startTime 	163.9
scalar RSUExampleScenario.node[68].veinsmobility 	totalTime 	186.1
scalar RSUExampleScenario.node[68].veinsmobility 	stopTime 	350
scalar RSUExampleScenario.node[68].veinsmobility 	minSpeed 	0
scalar RSUExampleScenario.node[68].veinsmobility 	maxSpeed 	13.999991951289
scalar RSUExampleScenario.node[68].veinsmobility 	totalDistance 	892.00322978089
scalar RSUExampleScenario.node[68].veinsmobility 	totalCO2Emission 	323.14817092222
scalar RSUExampleScenario.node[69].veinsmobility 	startTime 	166.3
scalar RSUExampleScenario.node[69].veinsmobility 	totalTime 	183.7
scalar RSUExampleScenario.node[69].veinsmobility 	stopTime 	350
scalar RSUExampleScenario.node[69].veinsmobility 	minSpeed 	0
scalar RSUExampleScenario.node[69].veinsmobility 	maxSpeed 	13.999721837805
scalar RSUExampleScenario.node[69].veinsmobility 	totalDistance 	859.36375509276
scalar RSUExampleScenario.node[69].veinsmobility 	totalCO2Emission 	315.17155977026
scalar RSUExampleScenario.node[7].veinsmobility 	startTime 	16.9
scalar RSUExampleScenario.node[7].veinsmobility 	totalTime 	333.1
scalar RSUExampleScenario.node[7].veinsmobility 	stopTime 	350
scalar RSUExampleScenario.node[7].veinsmobility 	minSpeed 	0
scalar RSUExampleScenario.node[7].veinsmobility 	maxSpeed 	13.999980283587
scalar RSUExampleScenario.node[7].veinsmobility 	totalDistance 	2888.9066513943
scalar RSUExampleScenario.node[7].veinsmobility 	totalCO2Emission 	678.29208968624
scalar RSUExampleScenario.node[70].veinsmobility 	startTime 	168.8
scalar RSUExampleScenario.node[70].veinsmobility 	totalTime 	181.2
scalar RSUExampleScenario.node[70].veinsmobility 	stopTime 	350
scalar RSUExampleScenario.node[70].veinsmobility 	minSpeed 	0
scalar RSUExampleScenario.node[70].veinsmobility 	maxSpeed 	13.999835611191
scalar RSUExampleScenario.node[70].veinsmobility 	totalDistance 	828.06660407433
scalar RSUExampleScenario.node[70].veinsmobility 	totalCO2Emission 	312.09307985158
scalar RSUExampleScenario.node[71].veinsmobility 	startTime 	171.2
scalar RSUExampleScenario.node[71].veinsmobility 	totalTime 	178.8
scalar RSUExampleScenario.node[71].veinsmobility 	stopTime 	350
scalar RSUExampleScenario.node[71].veinsmobility 	minSpeed 	0
scalar RSUExampleScenario.node[71].veinsmobility 	maxSpeed 	13.999898095236
scalar RSUExampleScenario.node[71].veinsmobility 	totalDistance 	792.73860615789
scalar RSUExampleScenario.node[71].veinsmobility 	totalCO2Emission 	308.14428238235
scalar RSUExampleScenario.node[72].veinsmobility 	startTime 	173.6
scalar RSUExampleScenario.node[72].veinsmobility 	totalTime 	176.4
scalar RSUExampleScenario.node[72].veinsmobility 	stopTime 	350
scalar RSUExampleScenario.node[72].veinsmobility 	minSpeed 	0
scalar RSUExampleScenario.node[72].veinsmobility 	maxSpeed 	13.999920933882
scalar RSUExampleScenario.node[72].veinsmobility 	totalDistance 	759.8648037082
scalar RSUExampleScenario.node[72].veinsmobility 	totalCO2Emission 	299.91247960526
scalar RSUExampleScenario.node[73].veinsmobility 	startTime 	176
scalar RSUExampleScenario.node[73].veinsmobility 	totalTime 	174
scalar RSUExampleScenario.node[73].veinsmobility 	stopTime 	350
scalar RSUExampleScenario.node[73].veinsmobility 	minSpeed 	0
scalar RSUExampleScenario.node[73].veinsmobility 	maxSpeed 	13.998282209537
scalar RSUExampleScenario.node[73].veinsmobility 	totalDistance 	725.70520654891
scalar RSUExampleScenario.node[73].veinsmobility 	totalCO2Emission 	294.58827345212
scalar RSUExampleScenario.node[74].veinsmobility 	startTime 	178.4
scalar RSUExampleScenario.node[74].veinsmobility 	totalTime 	171.6
scalar RSUExampleScenario.node[74].veinsmobility 	stopTime 	350
scalar RSUExampleScenario.node[74].veinsmobility 	minSpeed 	0
scalar RSUExampleScenario.node[74].veinsmobility 	maxSpeed 	13.99948752956
scalar RSUExampleScenario.node[74].veinsmobility 	totalDistance 	693.73762924085
scalar RSUExampleScenario.node[74].veinsmobility 	totalCO2Emission 	286.36164289329
scalar RSUExampleScenario.node[75].veinsmobility 	startTime 	180.8
scalar RSUExampleScenario.node[75].veinsmobility 	totalTime 	169.2
scalar RSUExampleScenario.node[75].veinsmobility 	stopTime 	350
scalar RSUExampleScenario.node[75].veinsmobility 	minSpeed 	0
scalar RSUExampleScenario.node[75].veinsmobility 	maxSpeed 	13.999957816389
scalar RSUExampleScenario.node[75].veinsmobility 	totalDistance 	660.21276372788
scalar RSUExampleScenario.node[75].veinsmobility 	totalCO2Emission 	282.83979524403
scalar RSUExampleScenario.node[76].veinsmobility 	startTime 	183.2
scalar RSUExampleScenario.node[76].veinsmobility 	totalTime 	166.8
scalar RSUExampleScenario.node[76].veinsmobility 	stopTime 	350
scalar RSUExampleScenario.node[76].veinsmobility 	minSpeed 	0
scalar RSUExampleScenario.node[76].veinsmobility 	maxSpeed 	13.999967378378
scalar RSUExampleScenario.node[76].veinsmobility 	totalDistance 	624.81115271577
scalar RSUExampleScenario.node[76].veinsmobility 	totalCO2Emission 	275.74130449743
scalar RSUExampleScenario.node[77].veinsmobility 	startTime 	185.6
scalar RSUExampleScenario.node[77].veinsmobility 	totalTime 	164.4
scalar RSUExampleScenario.node[77].veinsmobility 	stopTime 	350
scalar RSUExampleScenario.node[77].veinsmobility 	minSpeed 	0
scalar RSUExampleScenario.node[77].veinsmobility 	maxSpeed 	13.999403032518
scalar RSUExampleScenario.node[77].veinsmobility 	totalDistance 	590.62640065797
scalar RSUExampleScenario.node[77].veinsmobility 	totalCO2Emission 	272.16305032804
scalar RSUExampleScenario.node[78].veinsmobility 	startTime 	188
scalar RSUExampleScenario.node[78].veinsmobility 	totalTime 	162
scalar RSUExampleScenario.node[78].veinsmobility 	stopTime 	350
scalar RSUExampleScenario.node[78].veinsmobility 	minSpeed 	0
scalar RSUExampleScenario.node[78].veinsmobility 	maxSpeed 	13.999991459888
scalar RSUExampleScenario.node[78].veinsmobility 	totalDistance 	556.74097753661
scalar RSUExampleScenario.node[78].veinsmobility 	totalCO2Emission 	265.84662531936
scalar RSUExampleScenario.node[79].veinsmobility 	startTime 	190.4
scalar RSUExampleScenario.node[79].veinsmobility 	totalTime 	159.6
scalar RSUExampleScenario.node[79].veinsmobility 	stopTime 	350
scalar RSUExampleScenario.node[79].veinsmobility 	minSpeed 	0
scalar RSUExampleScenario.node[79].veinsmobility 	maxSpeed 	13.999846593596
scalar RSUExampleScenario.node[79].veinsmobility 	totalDistance 	525.15187477023
scalar RSUExampleScenario.node[79].veinsmobility 	totalCO2Emission 	259.86156173601
scalar RSUExampleScenario.node[8].veinsmobility 	startTime 	19.3
scalar RSUExampleScenario.node[8].veinsmobility 	totalTime 	330.7
scalar RSUExampleScenario.node[8].veinsmobility 	stopTime 	350
scalar RSUExampleScenario.node[8].veinsmobility 	minSpeed 	0
scalar RSUExampleScenario.node[8].veinsmobility 	maxSpeed 	13.999953190351
scalar RSUExampleScenario.node[8].veinsmobility 	totalDistance 	2857.357927004
scalar RSUExampleScenario.node[8].veinsmobility 	totalCO2Emission 	671.74556678122
scalar RSUExampleScenario.node[80].veinsmobility 	startTime 	192.9
scalar RSUExampleScenario.node[80].veinsmobility 	totalTime 	157.1
scalar RSUExampleScenario.node[80].veinsmobility 	stopTime 	350
scalar RSUExampleScenario.node[80].veinsmobility 	minSpeed 	0
scalar RSUExampleScenario.node[80].veinsmobility 	maxSpeed 	13.999264634524
scalar RSUExampleScenario.node[80].veinsmobility 	totalDistance 	490.52778186973
scalar RSUExampleScenario.node[80].veinsmobility 	totalCO2Emission 	253.97564030096
scalar RSUExampleScenario.node[81].veinsmobility 	startTime 	195.3
scalar RSUExampleScenario.node[81].veinsmobility 	totalTime 	154.7
scalar RSUExampleScenario.node[81].veinsmobility 	stopTime 	350
scalar RSUExampleScenario.node[81].veinsmobility 	minSpeed 	0
scalar RSUExampleScenario.node[81].veinsmobility 	maxSpeed 	13.999998644902
scalar RSUExampleScenario.node[81].veinsmobility 	totalDistance 	457.66157520881
scalar RSUExampleScenario.node[81].veinsmobility 	totalCO2Emission 	248.8980509601
scalar RSUExampleScenario.node[82].veinsmobility 	startTime 	197.7
scalar RSUExampleScenario.node[82].veinsmobility 	totalTime 	152.3
scalar RSUExampleScenario.node[82].veinsmobility 	stopTime 	350
scalar RSUExampleScenario.node[82].veinsmobility 	minSpeed 	0
scalar RSUExampleScenario.node[82].veinsmobility 	maxSpeed 	13.999321928185
scalar RSUExampleScenario.node[82].veinsmobility 	totalDistance 	423.85139610879
scalar RSUExampleScenario.node[82].veinsmobility 	totalCO2Emission 	243.14261430871
scalar RSUExampleScenario.node[83].veinsmobility 	startTime 	200.1
scalar RSUExampleScenario.node[83].veinsmobility 	totalTime 	149.9
scalar RSUExampleScenario.node[83].veinsmobility 	stopTime 	350
scalar RSUExampleScenario.node[83].veinsmobility 	minSpeed 	0
scalar RSUExampleScenario.node[83].veinsmobility 	maxSpeed 	13.997989788579
scalar RSUExampleScenario.node[83].veinsmobility 	totalDistance 	390.76831733117
scalar RSUExampleScenario.node[83].veinsmobility 	totalCO2Emission 	237.3899251573
scalar RSUExampleScenario.node[84].veinsmobility 	startTime 	202.5
scalar RSUExampleScenario.node[84].veinsmobility 	totalTime 	147.5
scalar RSUExampleScenario.node[84].veinsmobility 	stopTime 	350
scalar RSUExampleScenario.node[84].veinsmobility 	minSpeed 	0
scalar RSUExampleScenario.node[84].veinsmobility 	maxSpeed 	13.999693094541
scalar RSUExampleScenario.node[84].veinsmobility 	totalDistance 	354.70622002053
scalar RSUExampleScenario.node[84].veinsmobility 	totalCO2Emission 	230.19900596939
scalar RSUExampleScenario.node[85].veinsmobility 	startTime 	204.9
scalar RSUExampleScenario.node[85].veinsmobility 	totalTime 	145.1
scalar RSUExampleScenario.node[85].veinsmobility 	stopTime 	350
scalar RSUExampleScenario.node[85].veinsmobility 	minSpeed 	0
scalar RSUExampleScenario.node[85].veinsmobility 	maxSpeed 	13.999609756703
scalar RSUExampleScenario.node[85].veinsmobility 	totalDistance 	321.8854391297
scalar RSUExampleScenario.node[85].veinsmobility 	totalCO2Emission 	224.63178410054
scalar RSUExampleScenario.node[86].veinsmobility 	startTime 	207.3
scalar RSUExampleScenario.node[86].veinsmobility 	totalTime 	142.7
scalar RSUExampleScenario.node[86].veinsmobility 	stopTime 	350
scalar RSUExampleScenario.node[86].veinsmobility 	minSpeed 	0
scalar RSUExampleScenario.node[86].veinsmobility 	maxSpeed 	13.867766374489
scalar RSUExampleScenario.node[86].veinsmobility 	totalDistance 	286.90501291392
scalar RSUExampleScenario.node[86].veinsmobility 	totalCO2Emission 	218.16621172712
scalar RSUExampleScenario.node[87].veinsmobility 	startTime 	209.7
scalar RSUExampleScenario.node[87].veinsmobility 	totalTime 	140.3
scalar RSUExampleScenario.node[87].veinsmobility 	stopTime 	350
scalar RSUExampleScenario.node[87].veinsmobility 	minSpeed 	0
scalar RSUExampleScenario.node[87].veinsmobility 	maxSpeed 	13.887884458811
scalar RSUExampleScenario.node[87].veinsmobility 	totalDistance 	248.27135309003
scalar RSUExampleScenario.node[87].veinsmobility 	totalCO2Emission 	201.33171226579
scalar RSUExampleScenario.node[88].veinsmobility 	startTime 	212.1
scalar RSUExampleScenario.node[88].veinsmobility 	totalTime 	137.9
scalar RSUExampleScenario.node[88].veinsmobility 	stopTime 	350
scalar RSUExampleScenario.node[88].veinsmobility 	minSpeed 	0
scalar RSUExampleScenario.node[88].veinsmobility 	maxSpeed 	13.863175518261
scalar RSUExampleScenario.node[88].veinsmobility 	totalDistance 	226.07065003429
scalar RSUExampleScenario.node[88].veinsmobility 	totalCO2Emission 	189.57744748852
scalar RSUExampleScenario.node[89].veinsmobility 	startTime 	214.5
scalar RSUExampleScenario.node[89].veinsmobility 	totalTime 	135.5
scalar RSUExampleScenario.node[89].veinsmobility 	stopTime 	350
scalar RSUExampleScenario.node[89].veinsmobility 	minSpeed 	0
scalar RSUExampleScenario.node[89].veinsmobility 	maxSpeed 	13.845472741157
scalar RSUExampleScenario.node[89].veinsmobility 	totalDistance 	215.41464723747
scalar RSUExampleScenario.node[89].veinsmobility 	totalCO2Emission 	185.690456102
scalar RSUExampleScenario.node[9].veinsmobility 	startTime 	21.7
scalar RSUExampleScenario.node[9].veinsmobility 	totalTime 	328.3
scalar RSUExampleScenario.node[9].veinsmobility 	stopTime 	350
scalar RSUExampleScenario.node[9].veinsmobility 	minSpeed 	0
scalar RSUExampleScenario.node[9].veinsmobility 	maxSpeed 	13.999789365495
scalar RSUExampleScenario.node[9].veinsmobility 	totalDistance 	2828.5342909956
scalar RSUExampleScenario.node[9].veinsmobility 	totalCO2Emission 	667.3061311512
scalar RSUExampleScenario.node[90].veinsmobility 	startTime 	217
scalar RSUExampleScenario.node[90].veinsmobility 	totalTime 	133
scalar RSUExampleScenario.node[90].veinsmobility 	stopTime 	350
scalar RSUExampleScenario.node[90].veinsmobility 	minSpeed 	0
scalar RSUExampleScenario.node[90].veinsmobility 	maxSpeed 	13.888123222231
scalar RSUExampleScenario.node[90].veinsmobility 	totalDistance 	202.00724814797
scalar RSUExampleScenario.node[90].veinsmobility 	totalCO2Emission 	183.40545311336
scalar RSUExampleScenario.node[91].veinsmobility 	startTime 	219.4
scalar RSUExampleScenario.node[91].veinsmobility 	totalTime 	130.6
scalar RSUExampleScenario.node[91].veinsmobility 	stopTime 	350
scalar RSUExampleScenario.node[91].veinsmobility 	minSpeed 	0
scalar RSUExampleScenario.node[91].veinsmobility 	maxSpeed 	13.782559518604
scalar RSUExampleScenario.node[91].veinsmobility 	totalDistance 	185.787359296
scalar RSUExampleScenario.node[91].veinsmobility 	totalCO2Emission 	180.27546540176
scalar RSUExampleScenario.node[92].veinsmobility 	startTime 	221.8
scalar RSUExampleScenario.node[92].veinsmobility 	totalTime 	128.2
scalar RSUExampleScenario.node[92].veinsmobility 	stopTime 	350
scalar RSUExampleScenario.node[92].veinsmobility 	minSpeed 	0
scalar RSUExampleScenario.node[92].veinsmobility 	maxSpeed 	13.847004507675
scalar RSUExampleScenario.node[92].veinsmobility 	totalDistance 	152.03799278108
scalar RSUExampleScenario.node[92].veinsmobility 	totalCO2Emission 	167.80555653279
scalar RSUExampleScenario.node[93].veinsmobility 	startTime 	224.2
scalar RSUExampleScenario.node[93].veinsmobility 	totalTime 	125.8
scalar RSUExampleScenario.node[93].veinsmobility 	stopTime 	350
scalar RSUExampleScenario.node[93].veinsmobility 	minSpeed 	0
scalar RSUExampleScenario.node[93].veinsmobility 	maxSpeed 	13.804158667808
scalar RSUExampleScenario.node[93].veinsmobility 	totalDistance 	123.6362591712
scalar RSUExampleScenario.node[93].veinsmobility 	totalCO2Emission 	153.98736089747
scalar RSUExampleScenario.node[94].veinsmobility 	startTime 	226.6
scalar RSUExampleScenario.node[94].veinsmobility 	totalTime 	123.4
scalar RSUExampleScenario.node[94].veinsmobility 	stopTime 	350
scalar RSUExampleScenario.node[94].veinsmobility 	minSpeed 	0
scalar RSUExampleScenario.node[94].veinsmobility 	maxSpeed 	13.819245037362
scalar RSUExampleScenario.node[94].veinsmobility 	totalDistance 	112.21477635913
scalar RSUExampleScenario.node[94].veinsmobility 	totalCO2Emission 	148.40768574597
scalar RSUExampleScenario.node[95].veinsmobility 	startTime 	229
scalar RSUExampleScenario.node[95].veinsmobility 	totalTime 	121
scalar RSUExampleScenario.node[95].veinsmobility 	stopTime 	350
scalar RSUExampleScenario.node[95].veinsmobility 	minSpeed 	0
scalar RSUExampleScenario.node[95].veinsmobility 	maxSpeed 	13.755854955317
scalar RSUExampleScenario.node[95].veinsmobility 	totalDistance 	99.36984769721
scalar RSUExampleScenario.node[95].veinsmobility 	totalCO2Emission 	144.80316568963
scalar RSUExampleScenario.node[96].veinsmobility 	startTime 	231.4
scalar RSUExampleScenario.node[96].veinsmobility 	totalTime 	118.6
scalar RSUExampleScenario.node[96].veinsmobility 	stopTime 	350
scalar RSUExampleScenario.node[96].veinsmobility 	minSpeed 	0
scalar RSUExampleScenario.node[96].veinsmobility 	maxSpeed 	13.874794281244
scalar RSUExampleScenario.node[96].veinsmobility 	totalDistance 	83.224620802505
scalar RSUExampleScenario.node[96].veinsmobility 	totalCO2Emission 	142.73353400965
scalar RSUExampleScenario.node[97].veinsmobility 	startTime 	233.8
scalar RSUExampleScenario.node[97].veinsmobility 	totalTime 	116.2
scalar RSUExampleScenario.node[97].veinsmobility 	stopTime 	350
scalar RSUExampleScenario.node[97].veinsmobility 	minSpeed 	0
scalar RSUExampleScenario.node[97].veinsmobility 	maxSpeed 	12.09843383989
scalar RSUExampleScenario.node[97].veinsmobility 	totalDistance 	54.066680107056
scalar RSUExampleScenario.node[97].veinsmobility 	totalCO2Emission 	133.82959530212
scalar RSUExampleScenario.node[98].veinsmobility 	startTime 	236.2
scalar RSUExampleScenario.node[98].veinsmobility 	totalTime 	113.8
scalar RSUExampleScenario.node[98].veinsmobility 	stopTime 	350
scalar RSUExampleScenario.node[98].veinsmobility 	minSpeed 	0
scalar RSUExampleScenario.node[98].veinsmobility 	maxSpeed 	7.7733838772637
scalar RSUExampleScenario.node[98].veinsmobility 	totalDistance 	22.075686096508
scalar RSUExampleScenario.node[98].veinsmobility 	totalCO2Emission 	119.4053402043
scalar RSUExampleScenario.node[99].veinsmobility 	startTime 	238.6
scalar RSUExampleScenario.node[99].veinsmobility 	totalTime 	111.4
scalar RSUExampleScenario.node[99].veinsmobility 	stopTime 	350
scalar RSUExampleScenario.node[99].veinsmobility 	minSpeed 	0
scalar RSUExampleScenario.node[99].veinsmobility 	maxSpeed 	2.9486579364394
scalar RSUExampleScenario.node[99].veinsmobility 	totalDistance 	3.1944582405402
scalar RSUExampleScenario.node[99].veinsmobility 	totalCO2Emission 	109.69608454806
