version 2
run statistic4-301-20150324-13:20:04-5216
attr c 10
attr configname statistic4
attr datetime 20150324-13:20:04
attr experiment statistic4
attr inifile omnetpp.ini
attr iterationvars "$p=1/8, $c=10"
attr iterationvars2 "$p=1/8, $c=10, $repetition=1"
attr measurement "$p=1/8, $c=10"
attr network RSUExampleScenario
attr p 1/8
attr processid 5216
attr repetition 1
attr replication #1
attr resultdir results
attr runnumber 301
attr seedset 301

scalar . 	c 	10
scalar RSUExampleScenario.rsu[0].appl 	NumberofCH 	10
scalar RSUExampleScenario.rsu[0].appl 	NumberofON 	81
scalar RSUExampleScenario.rsu[0].appl 	NumberofFN 	9
scalar RSUExampleScenario.rsu[0].appl 	meanClusterNodes 	8.1
scalar RSUExampleScenario.rsu[0].appl 	varClusterNodes 	2.2113344387496
scalar RSUExampleScenario.rsu[0].appl 	sumCHutility 	377.46822359124
scalar RSUExampleScenario.rsu[0].appl 	meanCHutility 	37.746822359124
scalar RSUExampleScenario.rsu[0].appl 	varCHutility 	1.5459383635187
scalar RSUExampleScenario.rsu[0].appl 	sumDiffCHutility 	-36.045564814579
scalar RSUExampleScenario.rsu[0].appl 	meanDiffCHutility 	-3.6045564814579
scalar RSUExampleScenario.rsu[0].appl 	varDiffCHutility 	1.6719277238426
scalar RSUExampleScenario.rsu[0].appl 	expectedCHutility 	341.42265877666
scalar RSUExampleScenario.rsu[0].appl 	meanExpectedCHutility 	34.142265877666
scalar RSUExampleScenario.rsu[0].appl 	varExpectedCHutility 	0.71794909705605
scalar RSUExampleScenario.node[0].veinsmobility 	startTime 	0.1
scalar RSUExampleScenario.node[0].veinsmobility 	totalTime 	349.9
scalar RSUExampleScenario.node[0].veinsmobility 	stopTime 	350
scalar RSUExampleScenario.node[0].veinsmobility 	minSpeed 	0
scalar RSUExampleScenario.node[0].veinsmobility 	maxSpeed 	13.999870197417
scalar RSUExampleScenario.node[0].veinsmobility 	totalDistance 	3129.0801065627
scalar RSUExampleScenario.node[0].veinsmobility 	totalCO2Emission 	743.74742692768
scalar RSUExampleScenario.node[1].veinsmobility 	startTime 	2.5
scalar RSUExampleScenario.node[1].veinsmobility 	totalTime 	347.5
scalar RSUExampleScenario.node[1].veinsmobility 	stopTime 	350
scalar RSUExampleScenario.node[1].veinsmobility 	minSpeed 	0
scalar RSUExampleScenario.node[1].veinsmobility 	maxSpeed 	13.999986616194
scalar RSUExampleScenario.node[1].veinsmobility 	totalDistance 	3077.6267179302
scalar RSUExampleScenario.node[1].veinsmobility 	totalCO2Emission 	729.16908584332
scalar RSUExampleScenario.node[10].veinsmobility 	startTime 	24.2
scalar RSUExampleScenario.node[10].veinsmobility 	totalTime 	325.8
scalar RSUExampleScenario.node[10].veinsmobility 	stopTime 	350
scalar RSUExampleScenario.node[10].veinsmobility 	minSpeed 	0
scalar RSUExampleScenario.node[10].veinsmobility 	maxSpeed 	13.999926696876
scalar RSUExampleScenario.node[10].veinsmobility 	totalDistance 	2790.8246350012
scalar RSUExampleScenario.node[10].veinsmobility 	totalCO2Emission 	663.94784828889
scalar RSUExampleScenario.node[11].veinsmobility 	startTime 	26.6
scalar RSUExampleScenario.node[11].veinsmobility 	totalTime 	323.4
scalar RSUExampleScenario.node[11].veinsmobility 	stopTime 	350
scalar RSUExampleScenario.node[11].veinsmobility 	minSpeed 	0
scalar RSUExampleScenario.node[11].veinsmobility 	maxSpeed 	13.999951921699
scalar RSUExampleScenario.node[11].veinsmobility 	totalDistance 	2759.6509923467
scalar RSUExampleScenario.node[11].veinsmobility 	totalCO2Emission 	659.07260585054
scalar RSUExampleScenario.node[12].veinsmobility 	startTime 	29
scalar RSUExampleScenario.node[12].veinsmobility 	totalTime 	321
scalar RSUExampleScenario.node[12].veinsmobility 	stopTime 	350
scalar RSUExampleScenario.node[12].veinsmobility 	minSpeed 	0
scalar RSUExampleScenario.node[12].veinsmobility 	maxSpeed 	13.999964691428
scalar RSUExampleScenario.node[12].veinsmobility 	totalDistance 	2720.7495764647
scalar RSUExampleScenario.node[12].veinsmobility 	totalCO2Emission 	644.76370803055
scalar RSUExampleScenario.node[13].veinsmobility 	startTime 	31.4
scalar RSUExampleScenario.node[13].veinsmobility 	totalTime 	318.6
scalar RSUExampleScenario.node[13].veinsmobility 	stopTime 	350
scalar RSUExampleScenario.node[13].veinsmobility 	minSpeed 	0
scalar RSUExampleScenario.node[13].veinsmobility 	maxSpeed 	13.999995238089
scalar RSUExampleScenario.node[13].veinsmobility 	totalDistance 	2686.1012172556
scalar RSUExampleScenario.node[13].veinsmobility 	totalCO2Emission 	646.02056860381
scalar RSUExampleScenario.node[14].veinsmobility 	startTime 	33.8
scalar RSUExampleScenario.node[14].veinsmobility 	totalTime 	316.2
scalar RSUExampleScenario.node[14].veinsmobility 	stopTime 	350
scalar RSUExampleScenario.node[14].veinsmobility 	minSpeed 	0
scalar RSUExampleScenario.node[14].veinsmobility 	maxSpeed 	13.999977417148
scalar RSUExampleScenario.node[14].veinsmobility 	totalDistance 	2649.8529266675
scalar RSUExampleScenario.node[14].veinsmobility 	totalCO2Emission 	637.60668422517
scalar RSUExampleScenario.node[15].veinsmobility 	startTime 	36.2
scalar RSUExampleScenario.node[15].veinsmobility 	totalTime 	313.8
scalar RSUExampleScenario.node[15].veinsmobility 	stopTime 	350
scalar RSUExampleScenario.node[15].veinsmobility 	minSpeed 	0
scalar RSUExampleScenario.node[15].veinsmobility 	maxSpeed 	13.999962632933
scalar RSUExampleScenario.node[15].veinsmobility 	totalDistance 	2620.308865304
scalar RSUExampleScenario.node[15].veinsmobility 	totalCO2Emission 	633.72858110059
scalar RSUExampleScenario.node[16].veinsmobility 	startTime 	38.6
scalar RSUExampleScenario.node[16].veinsmobility 	totalTime 	311.4
scalar RSUExampleScenario.node[16].veinsmobility 	stopTime 	350
scalar RSUExampleScenario.node[16].veinsmobility 	minSpeed 	0
scalar RSUExampleScenario.node[16].veinsmobility 	maxSpeed 	13.999548901347
scalar RSUExampleScenario.node[16].veinsmobility 	totalDistance 	2581.0471437392
scalar RSUExampleScenario.node[16].veinsmobility 	totalCO2Emission 	626.18979201634
scalar RSUExampleScenario.node[17].veinsmobility 	startTime 	41
scalar RSUExampleScenario.node[17].veinsmobility 	totalTime 	309
scalar RSUExampleScenario.node[17].veinsmobility 	stopTime 	350
scalar RSUExampleScenario.node[17].veinsmobility 	minSpeed 	0
scalar RSUExampleScenario.node[17].veinsmobility 	maxSpeed 	13.999944148336
scalar RSUExampleScenario.node[17].veinsmobility 	totalDistance 	2543.9967249904
scalar RSUExampleScenario.node[17].veinsmobility 	totalCO2Emission 	621.77299457754
scalar RSUExampleScenario.node[18].veinsmobility 	startTime 	43.4
scalar RSUExampleScenario.node[18].veinsmobility 	totalTime 	306.6
scalar RSUExampleScenario.node[18].veinsmobility 	stopTime 	350
scalar RSUExampleScenario.node[18].veinsmobility 	minSpeed 	0
scalar RSUExampleScenario.node[18].veinsmobility 	maxSpeed 	13.999795778645
scalar RSUExampleScenario.node[18].veinsmobility 	totalDistance 	2506.1138947811
scalar RSUExampleScenario.node[18].veinsmobility 	totalCO2Emission 	615.04905459047
scalar RSUExampleScenario.node[19].veinsmobility 	startTime 	45.8
scalar RSUExampleScenario.node[19].veinsmobility 	totalTime 	304.2
scalar RSUExampleScenario.node[19].veinsmobility 	stopTime 	350
scalar RSUExampleScenario.node[19].veinsmobility 	minSpeed 	0
scalar RSUExampleScenario.node[19].veinsmobility 	maxSpeed 	13.999904696411
scalar RSUExampleScenario.node[19].veinsmobility 	totalDistance 	2476.3345278585
scalar RSUExampleScenario.node[19].veinsmobility 	totalCO2Emission 	609.93573237479
scalar RSUExampleScenario.node[2].veinsmobility 	startTime 	4.9
scalar RSUExampleScenario.node[2].veinsmobility 	totalTime 	345.1
scalar RSUExampleScenario.node[2].veinsmobility 	stopTime 	350
scalar RSUExampleScenario.node[2].veinsmobility 	minSpeed 	0
scalar RSUExampleScenario.node[2].veinsmobility 	maxSpeed 	13.999922704499
scalar RSUExampleScenario.node[2].veinsmobility 	totalDistance 	3033.0807975208
scalar RSUExampleScenario.node[2].veinsmobility 	totalCO2Emission 	720.56715867492
scalar RSUExampleScenario.node[20].veinsmobility 	startTime 	48.3
scalar RSUExampleScenario.node[20].veinsmobility 	totalTime 	301.7
scalar RSUExampleScenario.node[20].veinsmobility 	stopTime 	350
scalar RSUExampleScenario.node[20].veinsmobility 	minSpeed 	0
scalar RSUExampleScenario.node[20].veinsmobility 	maxSpeed 	13.999862133784
scalar RSUExampleScenario.node[20].veinsmobility 	totalDistance 	2438.493800459
scalar RSUExampleScenario.node[20].veinsmobility 	totalCO2Emission 	604.84475145082
scalar RSUExampleScenario.node[21].veinsmobility 	startTime 	50.7
scalar RSUExampleScenario.node[21].veinsmobility 	totalTime 	299.3
scalar RSUExampleScenario.node[21].veinsmobility 	stopTime 	350
scalar RSUExampleScenario.node[21].veinsmobility 	minSpeed 	0
scalar RSUExampleScenario.node[21].veinsmobility 	maxSpeed 	13.999995943545
scalar RSUExampleScenario.node[21].veinsmobility 	totalDistance 	2407.8172271487
scalar RSUExampleScenario.node[21].veinsmobility 	totalCO2Emission 	596.30234436437
scalar RSUExampleScenario.node[22].veinsmobility 	startTime 	53.1
scalar RSUExampleScenario.node[22].veinsmobility 	totalTime 	296.9
scalar RSUExampleScenario.node[22].veinsmobility 	stopTime 	350
scalar RSUExampleScenario.node[22].veinsmobility 	minSpeed 	0
scalar RSUExampleScenario.node[22].veinsmobility 	maxSpeed 	13.999848403924
scalar RSUExampleScenario.node[22].veinsmobility 	totalDistance 	2370.8399584267
scalar RSUExampleScenario.node[22].veinsmobility 	totalCO2Emission 	592.96182141427
scalar RSUExampleScenario.node[23].veinsmobility 	startTime 	55.5
scalar RSUExampleScenario.node[23].veinsmobility 	totalTime 	294.5
scalar RSUExampleScenario.node[23].veinsmobility 	stopTime 	350
scalar RSUExampleScenario.node[23].veinsmobility 	minSpeed 	0
scalar RSUExampleScenario.node[23].veinsmobility 	maxSpeed 	13.999858308365
scalar RSUExampleScenario.node[23].veinsmobility 	totalDistance 	2341.8348801741
scalar RSUExampleScenario.node[23].veinsmobility 	totalCO2Emission 	589.14963547164
scalar RSUExampleScenario.node[24].veinsmobility 	startTime 	57.9
scalar RSUExampleScenario.node[24].veinsmobility 	totalTime 	292.1
scalar RSUExampleScenario.node[24].veinsmobility 	stopTime 	350
scalar RSUExampleScenario.node[24].veinsmobility 	minSpeed 	0
scalar RSUExampleScenario.node[24].veinsmobility 	maxSpeed 	13.999931361596
scalar RSUExampleScenario.node[24].veinsmobility 	totalDistance 	2303.9189995659
scalar RSUExampleScenario.node[24].veinsmobility 	totalCO2Emission 	579.10118497164
scalar RSUExampleScenario.node[25].veinsmobility 	startTime 	60.3
scalar RSUExampleScenario.node[25].veinsmobility 	totalTime 	289.7
scalar RSUExampleScenario.node[25].veinsmobility 	stopTime 	350
scalar RSUExampleScenario.node[25].veinsmobility 	minSpeed 	0
scalar RSUExampleScenario.node[25].veinsmobility 	maxSpeed 	13.999857763571
scalar RSUExampleScenario.node[25].veinsmobility 	totalDistance 	2274.7318671412
scalar RSUExampleScenario.node[25].veinsmobility 	totalCO2Emission 	573.73570043853
scalar RSUExampleScenario.node[26].veinsmobility 	startTime 	62.7
scalar RSUExampleScenario.node[26].veinsmobility 	totalTime 	287.3
scalar RSUExampleScenario.node[26].veinsmobility 	stopTime 	350
scalar RSUExampleScenario.node[26].veinsmobility 	minSpeed 	0
scalar RSUExampleScenario.node[26].veinsmobility 	maxSpeed 	13.99994360439
scalar RSUExampleScenario.node[26].veinsmobility 	totalDistance 	2236.7746672697
scalar RSUExampleScenario.node[26].veinsmobility 	totalCO2Emission 	567.84570740457
scalar RSUExampleScenario.node[27].veinsmobility 	startTime 	65.1
scalar RSUExampleScenario.node[27].veinsmobility 	totalTime 	284.9
scalar RSUExampleScenario.node[27].veinsmobility 	stopTime 	350
scalar RSUExampleScenario.node[27].veinsmobility 	minSpeed 	0
scalar RSUExampleScenario.node[27].veinsmobility 	maxSpeed 	13.99987880433
scalar RSUExampleScenario.node[27].veinsmobility 	totalDistance 	2206.3584016296
scalar RSUExampleScenario.node[27].veinsmobility 	totalCO2Emission 	568.24251945383
scalar RSUExampleScenario.node[28].veinsmobility 	startTime 	67.5
scalar RSUExampleScenario.node[28].veinsmobility 	totalTime 	282.5
scalar RSUExampleScenario.node[28].veinsmobility 	stopTime 	350
scalar RSUExampleScenario.node[28].veinsmobility 	minSpeed 	0
scalar RSUExampleScenario.node[28].veinsmobility 	maxSpeed 	13.999879155015
scalar RSUExampleScenario.node[28].veinsmobility 	totalDistance 	2168.1387577976
scalar RSUExampleScenario.node[28].veinsmobility 	totalCO2Emission 	558.01935033946
scalar RSUExampleScenario.node[29].veinsmobility 	startTime 	69.9
scalar RSUExampleScenario.node[29].veinsmobility 	totalTime 	280.1
scalar RSUExampleScenario.node[29].veinsmobility 	stopTime 	350
scalar RSUExampleScenario.node[29].veinsmobility 	minSpeed 	0
scalar RSUExampleScenario.node[29].veinsmobility 	maxSpeed 	13.999998428305
scalar RSUExampleScenario.node[29].veinsmobility 	totalDistance 	2138.3963419046
scalar RSUExampleScenario.node[29].veinsmobility 	totalCO2Emission 	549.22696380073
scalar RSUExampleScenario.node[3].veinsmobility 	startTime 	7.3
scalar RSUExampleScenario.node[3].veinsmobility 	totalTime 	342.7
scalar RSUExampleScenario.node[3].veinsmobility 	stopTime 	350
scalar RSUExampleScenario.node[3].veinsmobility 	minSpeed 	0
scalar RSUExampleScenario.node[3].veinsmobility 	maxSpeed 	13.999908214004
scalar RSUExampleScenario.node[3].veinsmobility 	totalDistance 	2995.5814385102
scalar RSUExampleScenario.node[3].veinsmobility 	totalCO2Emission 	718.39096963134
scalar RSUExampleScenario.node[30].veinsmobility 	startTime 	72.4
scalar RSUExampleScenario.node[30].veinsmobility 	totalTime 	277.6
scalar RSUExampleScenario.node[30].veinsmobility 	stopTime 	350
scalar RSUExampleScenario.node[30].veinsmobility 	minSpeed 	0
scalar RSUExampleScenario.node[30].veinsmobility 	maxSpeed 	13.999946377513
scalar RSUExampleScenario.node[30].veinsmobility 	totalDistance 	2102.1720532365
scalar RSUExampleScenario.node[30].veinsmobility 	totalCO2Emission 	547.64413860352
scalar RSUExampleScenario.node[31].veinsmobility 	startTime 	74.8
scalar RSUExampleScenario.node[31].veinsmobility 	totalTime 	275.2
scalar RSUExampleScenario.node[31].veinsmobility 	stopTime 	350
scalar RSUExampleScenario.node[31].veinsmobility 	minSpeed 	0
scalar RSUExampleScenario.node[31].veinsmobility 	maxSpeed 	13.999810193076
scalar RSUExampleScenario.node[31].veinsmobility 	totalDistance 	2070.3440870978
scalar RSUExampleScenario.node[31].veinsmobility 	totalCO2Emission 	539.41814159952
scalar RSUExampleScenario.node[32].veinsmobility 	startTime 	77.2
scalar RSUExampleScenario.node[32].veinsmobility 	totalTime 	272.8
scalar RSUExampleScenario.node[32].veinsmobility 	stopTime 	350
scalar RSUExampleScenario.node[32].veinsmobility 	minSpeed 	0
scalar RSUExampleScenario.node[32].veinsmobility 	maxSpeed 	13.999933259611
scalar RSUExampleScenario.node[32].veinsmobility 	totalDistance 	2034.2574966897
scalar RSUExampleScenario.node[32].veinsmobility 	totalCO2Emission 	539.4771313243
scalar RSUExampleScenario.node[33].veinsmobility 	startTime 	79.6
scalar RSUExampleScenario.node[33].veinsmobility 	totalTime 	270.4
scalar RSUExampleScenario.node[33].veinsmobility 	stopTime 	350
scalar RSUExampleScenario.node[33].veinsmobility 	minSpeed 	0
scalar RSUExampleScenario.node[33].veinsmobility 	maxSpeed 	13.999701999926
scalar RSUExampleScenario.node[33].veinsmobility 	totalDistance 	1998.7717604193
scalar RSUExampleScenario.node[33].veinsmobility 	totalCO2Emission 	527.91198785737
scalar RSUExampleScenario.node[34].veinsmobility 	startTime 	82
scalar RSUExampleScenario.node[34].veinsmobility 	totalTime 	268
scalar RSUExampleScenario.node[34].veinsmobility 	stopTime 	350
scalar RSUExampleScenario.node[34].veinsmobility 	minSpeed 	0
scalar RSUExampleScenario.node[34].veinsmobility 	maxSpeed 	13.999983230871
scalar RSUExampleScenario.node[34].veinsmobility 	totalDistance 	1965.7649757052
scalar RSUExampleScenario.node[34].veinsmobility 	totalCO2Emission 	524.5832303465
scalar RSUExampleScenario.node[35].veinsmobility 	startTime 	84.4
scalar RSUExampleScenario.node[35].veinsmobility 	totalTime 	265.6
scalar RSUExampleScenario.node[35].veinsmobility 	stopTime 	350
scalar RSUExampleScenario.node[35].veinsmobility 	minSpeed 	0
scalar RSUExampleScenario.node[35].veinsmobility 	maxSpeed 	13.99990483186
scalar RSUExampleScenario.node[35].veinsmobility 	totalDistance 	1933.2780617642
scalar RSUExampleScenario.node[35].veinsmobility 	totalCO2Emission 	516.86479019371
scalar RSUExampleScenario.node[36].veinsmobility 	startTime 	86.8
scalar RSUExampleScenario.node[36].veinsmobility 	totalTime 	263.2
scalar RSUExampleScenario.node[36].veinsmobility 	stopTime 	350
scalar RSUExampleScenario.node[36].veinsmobility 	minSpeed 	0
scalar RSUExampleScenario.node[36].veinsmobility 	maxSpeed 	13.999895747984
scalar RSUExampleScenario.node[36].veinsmobility 	totalDistance 	1897.4744931252
scalar RSUExampleScenario.node[36].veinsmobility 	totalCO2Emission 	514.5042206866
scalar RSUExampleScenario.node[37].veinsmobility 	startTime 	89.2
scalar RSUExampleScenario.node[37].veinsmobility 	totalTime 	260.8
scalar RSUExampleScenario.node[37].veinsmobility 	stopTime 	350
scalar RSUExampleScenario.node[37].veinsmobility 	minSpeed 	0
scalar RSUExampleScenario.node[37].veinsmobility 	maxSpeed 	13.999775096774
scalar RSUExampleScenario.node[37].veinsmobility 	totalDistance 	1865.3396006827
scalar RSUExampleScenario.node[37].veinsmobility 	totalCO2Emission 	507.78105564315
scalar RSUExampleScenario.node[38].veinsmobility 	startTime 	91.6
scalar RSUExampleScenario.node[38].veinsmobility 	totalTime 	258.4
scalar RSUExampleScenario.node[38].veinsmobility 	stopTime 	350
scalar RSUExampleScenario.node[38].veinsmobility 	minSpeed 	0
scalar RSUExampleScenario.node[38].veinsmobility 	maxSpeed 	13.999923246477
scalar RSUExampleScenario.node[38].veinsmobility 	totalDistance 	1829.9870836231
scalar RSUExampleScenario.node[38].veinsmobility 	totalCO2Emission 	499.38157456423
scalar RSUExampleScenario.node[39].veinsmobility 	startTime 	94
scalar RSUExampleScenario.node[39].veinsmobility 	totalTime 	256
scalar RSUExampleScenario.node[39].veinsmobility 	stopTime 	350
scalar RSUExampleScenario.node[39].veinsmobility 	minSpeed 	0
scalar RSUExampleScenario.node[39].veinsmobility 	maxSpeed 	13.99997003963
scalar RSUExampleScenario.node[39].veinsmobility 	totalDistance 	1797.9140386546
scalar RSUExampleScenario.node[39].veinsmobility 	totalCO2Emission 	494.57188963758
scalar RSUExampleScenario.node[4].veinsmobility 	startTime 	9.7
scalar RSUExampleScenario.node[4].veinsmobility 	totalTime 	340.3
scalar RSUExampleScenario.node[4].veinsmobility 	stopTime 	350
scalar RSUExampleScenario.node[4].veinsmobility 	minSpeed 	0
scalar RSUExampleScenario.node[4].veinsmobility 	maxSpeed 	13.999781337911
scalar RSUExampleScenario.node[4].veinsmobility 	totalDistance 	2946.1874610631
scalar RSUExampleScenario.node[4].veinsmobility 	totalCO2Emission 	700.15546380477
scalar RSUExampleScenario.node[40].veinsmobility 	startTime 	96.5
scalar RSUExampleScenario.node[40].veinsmobility 	totalTime 	253.5
scalar RSUExampleScenario.node[40].veinsmobility 	stopTime 	350
scalar RSUExampleScenario.node[40].veinsmobility 	minSpeed 	0
scalar RSUExampleScenario.node[40].veinsmobility 	maxSpeed 	13.999831903121
scalar RSUExampleScenario.node[40].veinsmobility 	totalDistance 	1761.21289051
scalar RSUExampleScenario.node[40].veinsmobility 	totalCO2Emission 	490.24364290232
scalar RSUExampleScenario.node[41].veinsmobility 	startTime 	98.9
scalar RSUExampleScenario.node[41].veinsmobility 	totalTime 	251.1
scalar RSUExampleScenario.node[41].veinsmobility 	stopTime 	350
scalar RSUExampleScenario.node[41].veinsmobility 	minSpeed 	0
scalar RSUExampleScenario.node[41].veinsmobility 	maxSpeed 	13.999891153183
scalar RSUExampleScenario.node[41].veinsmobility 	totalDistance 	1729.3156973361
scalar RSUExampleScenario.node[41].veinsmobility 	totalCO2Emission 	484.29381178564
scalar RSUExampleScenario.node[42].veinsmobility 	startTime 	101.3
scalar RSUExampleScenario.node[42].veinsmobility 	totalTime 	248.7
scalar RSUExampleScenario.node[42].veinsmobility 	stopTime 	350
scalar RSUExampleScenario.node[42].veinsmobility 	minSpeed 	0
scalar RSUExampleScenario.node[42].veinsmobility 	maxSpeed 	13.999950514541
scalar RSUExampleScenario.node[42].veinsmobility 	totalDistance 	1694.2923943635
scalar RSUExampleScenario.node[42].veinsmobility 	totalCO2Emission 	479.17429349154
scalar RSUExampleScenario.node[43].veinsmobility 	startTime 	103.7
scalar RSUExampleScenario.node[43].veinsmobility 	totalTime 	246.3
scalar RSUExampleScenario.node[43].veinsmobility 	stopTime 	350
scalar RSUExampleScenario.node[43].veinsmobility 	minSpeed 	0
scalar RSUExampleScenario.node[43].veinsmobility 	maxSpeed 	13.9995839593
scalar RSUExampleScenario.node[43].veinsmobility 	totalDistance 	1662.3790614793
scalar RSUExampleScenario.node[43].veinsmobility 	totalCO2Emission 	472.23729424916
scalar RSUExampleScenario.node[44].veinsmobility 	startTime 	106.1
scalar RSUExampleScenario.node[44].veinsmobility 	totalTime 	243.9
scalar RSUExampleScenario.node[44].veinsmobility 	stopTime 	350
scalar RSUExampleScenario.node[44].veinsmobility 	minSpeed 	0
scalar RSUExampleScenario.node[44].veinsmobility 	maxSpeed 	13.99996697763
scalar RSUExampleScenario.node[44].veinsmobility 	totalDistance 	1628.7250736982
scalar RSUExampleScenario.node[44].veinsmobility 	totalCO2Emission 	468.54153161779
scalar RSUExampleScenario.node[45].veinsmobility 	startTime 	108.5
scalar RSUExampleScenario.node[45].veinsmobility 	totalTime 	241.5
scalar RSUExampleScenario.node[45].veinsmobility 	stopTime 	350
scalar RSUExampleScenario.node[45].veinsmobility 	minSpeed 	0
scalar RSUExampleScenario.node[45].veinsmobility 	maxSpeed 	13.99995215555
scalar RSUExampleScenario.node[45].veinsmobility 	totalDistance 	1595.3939273033
scalar RSUExampleScenario.node[45].veinsmobility 	totalCO2Emission 	461.7355343308
scalar RSUExampleScenario.node[46].veinsmobility 	startTime 	110.9
scalar RSUExampleScenario.node[46].veinsmobility 	totalTime 	239.1
scalar RSUExampleScenario.node[46].veinsmobility 	stopTime 	350
scalar RSUExampleScenario.node[46].veinsmobility 	minSpeed 	0
scalar RSUExampleScenario.node[46].veinsmobility 	maxSpeed 	13.999687455313
scalar RSUExampleScenario.node[46].veinsmobility 	totalDistance 	1561.4214207647
scalar RSUExampleScenario.node[46].veinsmobility 	totalCO2Emission 	453.19328591059
scalar RSUExampleScenario.node[47].veinsmobility 	startTime 	113.3
scalar RSUExampleScenario.node[47].veinsmobility 	totalTime 	236.7
scalar RSUExampleScenario.node[47].veinsmobility 	stopTime 	350
scalar RSUExampleScenario.node[47].veinsmobility 	minSpeed 	0
scalar RSUExampleScenario.node[47].veinsmobility 	maxSpeed 	13.999538567404
scalar RSUExampleScenario.node[47].veinsmobility 	totalDistance 	1528.5858859375
scalar RSUExampleScenario.node[47].veinsmobility 	totalCO2Emission 	448.28205020525
scalar RSUExampleScenario.node[48].veinsmobility 	startTime 	115.7
scalar RSUExampleScenario.node[48].veinsmobility 	totalTime 	234.3
scalar RSUExampleScenario.node[48].veinsmobility 	stopTime 	350
scalar RSUExampleScenario.node[48].veinsmobility 	minSpeed 	0
scalar RSUExampleScenario.node[48].veinsmobility 	maxSpeed 	13.999923406262
scalar RSUExampleScenario.node[48].veinsmobility 	totalDistance 	1494.9932141872
scalar RSUExampleScenario.node[48].veinsmobility 	totalCO2Emission 	445.33801332801
scalar RSUExampleScenario.node[49].veinsmobility 	startTime 	118.1
scalar RSUExampleScenario.node[49].veinsmobility 	totalTime 	231.9
scalar RSUExampleScenario.node[49].veinsmobility 	stopTime 	350
scalar RSUExampleScenario.node[49].veinsmobility 	minSpeed 	0
scalar RSUExampleScenario.node[49].veinsmobility 	maxSpeed 	13.999824620371
scalar RSUExampleScenario.node[49].veinsmobility 	totalDistance 	1461.402098526
scalar RSUExampleScenario.node[49].veinsmobility 	totalCO2Emission 	440.36290781194
scalar RSUExampleScenario.node[5].veinsmobility 	startTime 	12.1
scalar RSUExampleScenario.node[5].veinsmobility 	totalTime 	337.9
scalar RSUExampleScenario.node[5].veinsmobility 	stopTime 	350
scalar RSUExampleScenario.node[5].veinsmobility 	minSpeed 	0
scalar RSUExampleScenario.node[5].veinsmobility 	maxSpeed 	13.999999524641
scalar RSUExampleScenario.node[5].veinsmobility 	totalDistance 	2918.0774207979
scalar RSUExampleScenario.node[5].veinsmobility 	totalCO2Emission 	688.67310412282
scalar RSUExampleScenario.node[50].veinsmobility 	startTime 	120.6
scalar RSUExampleScenario.node[50].veinsmobility 	totalTime 	229.4
scalar RSUExampleScenario.node[50].veinsmobility 	stopTime 	350
scalar RSUExampleScenario.node[50].veinsmobility 	minSpeed 	0
scalar RSUExampleScenario.node[50].veinsmobility 	maxSpeed 	13.999849994506
scalar RSUExampleScenario.node[50].veinsmobility 	totalDistance 	1427.5460025709
scalar RSUExampleScenario.node[50].veinsmobility 	totalCO2Emission 	434.43002369337
scalar RSUExampleScenario.node[51].veinsmobility 	startTime 	123
scalar RSUExampleScenario.node[51].veinsmobility 	totalTime 	227
scalar RSUExampleScenario.node[51].veinsmobility 	stopTime 	350
scalar RSUExampleScenario.node[51].veinsmobility 	minSpeed 	0
scalar RSUExampleScenario.node[51].veinsmobility 	maxSpeed 	13.99952462479
scalar RSUExampleScenario.node[51].veinsmobility 	totalDistance 	1394.2629503267
scalar RSUExampleScenario.node[51].veinsmobility 	totalCO2Emission 	426.60849018066
scalar RSUExampleScenario.node[52].veinsmobility 	startTime 	125.4
scalar RSUExampleScenario.node[52].veinsmobility 	totalTime 	224.6
scalar RSUExampleScenario.node[52].veinsmobility 	stopTime 	350
scalar RSUExampleScenario.node[52].veinsmobility 	minSpeed 	0
scalar RSUExampleScenario.node[52].veinsmobility 	maxSpeed 	13.999955335534
scalar RSUExampleScenario.node[52].veinsmobility 	totalDistance 	1361.7163833123
scalar RSUExampleScenario.node[52].veinsmobility 	totalCO2Emission 	423.67143671288
scalar RSUExampleScenario.node[53].veinsmobility 	startTime 	127.8
scalar RSUExampleScenario.node[53].veinsmobility 	totalTime 	222.2
scalar RSUExampleScenario.node[53].veinsmobility 	stopTime 	350
scalar RSUExampleScenario.node[53].veinsmobility 	minSpeed 	0
scalar RSUExampleScenario.node[53].veinsmobility 	maxSpeed 	13.999924130121
scalar RSUExampleScenario.node[53].veinsmobility 	totalDistance 	1327.5807990626
scalar RSUExampleScenario.node[53].veinsmobility 	totalCO2Emission 	415.35518338647
scalar RSUExampleScenario.node[54].veinsmobility 	startTime 	130.2
scalar RSUExampleScenario.node[54].veinsmobility 	totalTime 	219.8
scalar RSUExampleScenario.node[54].veinsmobility 	stopTime 	350
scalar RSUExampleScenario.node[54].veinsmobility 	minSpeed 	0
scalar RSUExampleScenario.node[54].veinsmobility 	maxSpeed 	13.999881304041
scalar RSUExampleScenario.node[54].veinsmobility 	totalDistance 	1293.3882228854
scalar RSUExampleScenario.node[54].veinsmobility 	totalCO2Emission 	411.34914266672
scalar RSUExampleScenario.node[55].veinsmobility 	startTime 	132.6
scalar RSUExampleScenario.node[55].veinsmobility 	totalTime 	217.4
scalar RSUExampleScenario.node[55].veinsmobility 	stopTime 	350
scalar RSUExampleScenario.node[55].veinsmobility 	minSpeed 	0
scalar RSUExampleScenario.node[55].veinsmobility 	maxSpeed 	13.999884291613
scalar RSUExampleScenario.node[55].veinsmobility 	totalDistance 	1260.5980468965
scalar RSUExampleScenario.node[55].veinsmobility 	totalCO2Emission 	406.28139338296
scalar RSUExampleScenario.node[56].veinsmobility 	startTime 	135
scalar RSUExampleScenario.node[56].veinsmobility 	totalTime 	215
scalar RSUExampleScenario.node[56].veinsmobility 	stopTime 	350
scalar RSUExampleScenario.node[56].veinsmobility 	minSpeed 	0
scalar RSUExampleScenario.node[56].veinsmobility 	maxSpeed 	13.999978759987
scalar RSUExampleScenario.node[56].veinsmobility 	totalDistance 	1227.6131251821
scalar RSUExampleScenario.node[56].veinsmobility 	totalCO2Emission 	399.50368600514
scalar RSUExampleScenario.node[57].veinsmobility 	startTime 	137.4
scalar RSUExampleScenario.node[57].veinsmobility 	totalTime 	212.6
scalar RSUExampleScenario.node[57].veinsmobility 	stopTime 	350
scalar RSUExampleScenario.node[57].veinsmobility 	minSpeed 	0
scalar RSUExampleScenario.node[57].veinsmobility 	maxSpeed 	13.99996993012
scalar RSUExampleScenario.node[57].veinsmobility 	totalDistance 	1194.6289214327
scalar RSUExampleScenario.node[57].veinsmobility 	totalCO2Emission 	395.67120274589
scalar RSUExampleScenario.node[58].veinsmobility 	startTime 	139.8
scalar RSUExampleScenario.node[58].veinsmobility 	totalTime 	210.2
scalar RSUExampleScenario.node[58].veinsmobility 	stopTime 	350
scalar RSUExampleScenario.node[58].veinsmobility 	minSpeed 	0
scalar RSUExampleScenario.node[58].veinsmobility 	maxSpeed 	13.999256110697
scalar RSUExampleScenario.node[58].veinsmobility 	totalDistance 	1161.4200101643
scalar RSUExampleScenario.node[58].veinsmobility 	totalCO2Emission 	389.6943633641
scalar RSUExampleScenario.node[59].veinsmobility 	startTime 	142.2
scalar RSUExampleScenario.node[59].veinsmobility 	totalTime 	207.8
scalar RSUExampleScenario.node[59].veinsmobility 	stopTime 	350
scalar RSUExampleScenario.node[59].veinsmobility 	minSpeed 	0
scalar RSUExampleScenario.node[59].veinsmobility 	maxSpeed 	13.999812311199
scalar RSUExampleScenario.node[59].veinsmobility 	totalDistance 	1126.9222406638
scalar RSUExampleScenario.node[59].veinsmobility 	totalCO2Emission 	381.14047331886
scalar RSUExampleScenario.node[6].veinsmobility 	startTime 	14.5
scalar RSUExampleScenario.node[6].veinsmobility 	totalTime 	335.5
scalar RSUExampleScenario.node[6].veinsmobility 	stopTime 	350
scalar RSUExampleScenario.node[6].veinsmobility 	minSpeed 	0
scalar RSUExampleScenario.node[6].veinsmobility 	maxSpeed 	13.999807285503
scalar RSUExampleScenario.node[6].veinsmobility 	totalDistance 	2901.5620023032
scalar RSUExampleScenario.node[6].veinsmobility 	totalCO2Emission 	680.29247983548
scalar RSUExampleScenario.node[60].veinsmobility 	startTime 	144.7
scalar RSUExampleScenario.node[60].veinsmobility 	totalTime 	205.3
scalar RSUExampleScenario.node[60].veinsmobility 	stopTime 	350
scalar RSUExampleScenario.node[60].veinsmobility 	minSpeed 	0
scalar RSUExampleScenario.node[60].veinsmobility 	maxSpeed 	13.999763200518
scalar RSUExampleScenario.node[60].veinsmobility 	totalDistance 	1091.0587169167
scalar RSUExampleScenario.node[60].veinsmobility 	totalCO2Emission 	376.37107489187
scalar RSUExampleScenario.node[61].veinsmobility 	startTime 	147.1
scalar RSUExampleScenario.node[61].veinsmobility 	totalTime 	202.9
scalar RSUExampleScenario.node[61].veinsmobility 	stopTime 	350
scalar RSUExampleScenario.node[61].veinsmobility 	minSpeed 	0
scalar RSUExampleScenario.node[61].veinsmobility 	maxSpeed 	13.999735735562
scalar RSUExampleScenario.node[61].veinsmobility 	totalDistance 	1057.1094779035
scalar RSUExampleScenario.node[61].veinsmobility 	totalCO2Emission 	368.68108459441
scalar RSUExampleScenario.node[62].veinsmobility 	startTime 	149.5
scalar RSUExampleScenario.node[62].veinsmobility 	totalTime 	200.5
scalar RSUExampleScenario.node[62].veinsmobility 	stopTime 	350
scalar RSUExampleScenario.node[62].veinsmobility 	minSpeed 	0
scalar RSUExampleScenario.node[62].veinsmobility 	maxSpeed 	13.99979980347
scalar RSUExampleScenario.node[62].veinsmobility 	totalDistance 	1025.8597483339
scalar RSUExampleScenario.node[62].veinsmobility 	totalCO2Emission 	365.7481529533
scalar RSUExampleScenario.node[63].veinsmobility 	startTime 	151.9
scalar RSUExampleScenario.node[63].veinsmobility 	totalTime 	198.1
scalar RSUExampleScenario.node[63].veinsmobility 	stopTime 	350
scalar RSUExampleScenario.node[63].veinsmobility 	minSpeed 	0
scalar RSUExampleScenario.node[63].veinsmobility 	maxSpeed 	13.999984963683
scalar RSUExampleScenario.node[63].veinsmobility 	totalDistance 	987.0388197748
scalar RSUExampleScenario.node[63].veinsmobility 	totalCO2Emission 	352.97075937862
scalar RSUExampleScenario.node[64].veinsmobility 	startTime 	154.3
scalar RSUExampleScenario.node[64].veinsmobility 	totalTime 	195.7
scalar RSUExampleScenario.node[64].veinsmobility 	stopTime 	350
scalar RSUExampleScenario.node[64].veinsmobility 	minSpeed 	0
scalar RSUExampleScenario.node[64].veinsmobility 	maxSpeed 	13.999619545247
scalar RSUExampleScenario.node[64].veinsmobility 	totalDistance 	953.46014833174
scalar RSUExampleScenario.node[64].veinsmobility 	totalCO2Emission 	337.05552365268
scalar RSUExampleScenario.node[65].veinsmobility 	startTime 	156.7
scalar RSUExampleScenario.node[65].veinsmobility 	totalTime 	193.3
scalar RSUExampleScenario.node[65].veinsmobility 	stopTime 	350
scalar RSUExampleScenario.node[65].veinsmobility 	minSpeed 	0
scalar RSUExampleScenario.node[65].veinsmobility 	maxSpeed 	13.99911843983
scalar RSUExampleScenario.node[65].veinsmobility 	totalDistance 	940.43747475591
scalar RSUExampleScenario.node[65].veinsmobility 	totalCO2Emission 	331.85015627002
scalar RSUExampleScenario.node[66].veinsmobility 	startTime 	159.1
scalar RSUExampleScenario.node[66].veinsmobility 	totalTime 	190.9
scalar RSUExampleScenario.node[66].veinsmobility 	stopTime 	350
scalar RSUExampleScenario.node[66].veinsmobility 	minSpeed 	0
scalar RSUExampleScenario.node[66].veinsmobility 	maxSpeed 	13.999977052298
scalar RSUExampleScenario.node[66].veinsmobility 	totalDistance 	928.20291138186
scalar RSUExampleScenario.node[66].veinsmobility 	totalCO2Emission 	328.56298012226
scalar RSUExampleScenario.node[67].veinsmobility 	startTime 	161.5
scalar RSUExampleScenario.node[67].veinsmobility 	totalTime 	188.5
scalar RSUExampleScenario.node[67].veinsmobility 	stopTime 	350
scalar RSUExampleScenario.node[67].veinsmobility 	minSpeed 	0
scalar RSUExampleScenario.node[67].veinsmobility 	maxSpeed 	13.999960435417
scalar RSUExampleScenario.node[67].veinsmobility 	totalDistance 	912.41808668103
scalar RSUExampleScenario.node[67].veinsmobility 	totalCO2Emission 	324.74504446166
scalar RSUExampleScenario.node[68].veinsmobility 	startTime 	163.9
scalar RSUExampleScenario.node[68].veinsmobility 	totalTime 	186.1
scalar RSUExampleScenario.node[68].veinsmobility 	stopTime 	350
scalar RSUExampleScenario.node[68].veinsmobility 	minSpeed 	0
scalar RSUExampleScenario.node[68].veinsmobility 	maxSpeed 	13.999915333306
scalar RSUExampleScenario.node[68].veinsmobility 	totalDistance 	892.12545470256
scalar RSUExampleScenario.node[68].veinsmobility 	totalCO2Emission 	321.01570786681
scalar RSUExampleScenario.node[69].veinsmobility 	startTime 	166.3
scalar RSUExampleScenario.node[69].veinsmobility 	totalTime 	183.7
scalar RSUExampleScenario.node[69].veinsmobility 	stopTime 	350
scalar RSUExampleScenario.node[69].veinsmobility 	minSpeed 	0
scalar RSUExampleScenario.node[69].veinsmobility 	maxSpeed 	13.999986804794
scalar RSUExampleScenario.node[69].veinsmobility 	totalDistance 	857.17416706831
scalar RSUExampleScenario.node[69].veinsmobility 	totalCO2Emission 	316.37924822246
scalar RSUExampleScenario.node[7].veinsmobility 	startTime 	16.9
scalar RSUExampleScenario.node[7].veinsmobility 	totalTime 	333.1
scalar RSUExampleScenario.node[7].veinsmobility 	stopTime 	350
scalar RSUExampleScenario.node[7].veinsmobility 	minSpeed 	0
scalar RSUExampleScenario.node[7].veinsmobility 	maxSpeed 	13.999993877604
scalar RSUExampleScenario.node[7].veinsmobility 	totalDistance 	2889.8505845396
scalar RSUExampleScenario.node[7].veinsmobility 	totalCO2Emission 	678.94219921047
scalar RSUExampleScenario.node[70].veinsmobility 	startTime 	168.8
scalar RSUExampleScenario.node[70].veinsmobility 	totalTime 	181.2
scalar RSUExampleScenario.node[70].veinsmobility 	stopTime 	350
scalar RSUExampleScenario.node[70].veinsmobility 	minSpeed 	0
scalar RSUExampleScenario.node[70].veinsmobility 	maxSpeed 	13.99946614526
scalar RSUExampleScenario.node[70].veinsmobility 	totalDistance 	825.23496043713
scalar RSUExampleScenario.node[70].veinsmobility 	totalCO2Emission 	312.78685681032
scalar RSUExampleScenario.node[71].veinsmobility 	startTime 	171.2
scalar RSUExampleScenario.node[71].veinsmobility 	totalTime 	178.8
scalar RSUExampleScenario.node[71].veinsmobility 	stopTime 	350
scalar RSUExampleScenario.node[71].veinsmobility 	minSpeed 	0
scalar RSUExampleScenario.node[71].veinsmobility 	maxSpeed 	13.999070390041
scalar RSUExampleScenario.node[71].veinsmobility 	totalDistance 	791.40855402702
scalar RSUExampleScenario.node[71].veinsmobility 	totalCO2Emission 	305.01672090003
scalar RSUExampleScenario.node[72].veinsmobility 	startTime 	173.6
scalar RSUExampleScenario.node[72].veinsmobility 	totalTime 	176.4
scalar RSUExampleScenario.node[72].veinsmobility 	stopTime 	350
scalar RSUExampleScenario.node[72].veinsmobility 	minSpeed 	0
scalar RSUExampleScenario.node[72].veinsmobility 	maxSpeed 	13.999720044821
scalar RSUExampleScenario.node[72].veinsmobility 	totalDistance 	758.16884269123
scalar RSUExampleScenario.node[72].veinsmobility 	totalCO2Emission 	299.19618125143
scalar RSUExampleScenario.node[73].veinsmobility 	startTime 	176
scalar RSUExampleScenario.node[73].veinsmobility 	totalTime 	174
scalar RSUExampleScenario.node[73].veinsmobility 	stopTime 	350
scalar RSUExampleScenario.node[73].veinsmobility 	minSpeed 	0
scalar RSUExampleScenario.node[73].veinsmobility 	maxSpeed 	13.99997486704
scalar RSUExampleScenario.node[73].veinsmobility 	totalDistance 	725.40165303719
scalar RSUExampleScenario.node[73].veinsmobility 	totalCO2Emission 	292.49868480711
scalar RSUExampleScenario.node[74].veinsmobility 	startTime 	178.4
scalar RSUExampleScenario.node[74].veinsmobility 	totalTime 	171.6
scalar RSUExampleScenario.node[74].veinsmobility 	stopTime 	350
scalar RSUExampleScenario.node[74].veinsmobility 	minSpeed 	0
scalar RSUExampleScenario.node[74].veinsmobility 	maxSpeed 	13.999261105882
scalar RSUExampleScenario.node[74].veinsmobility 	totalDistance 	691.19862680405
scalar RSUExampleScenario.node[74].veinsmobility 	totalCO2Emission 	287.04107173422
scalar RSUExampleScenario.node[75].veinsmobility 	startTime 	180.8
scalar RSUExampleScenario.node[75].veinsmobility 	totalTime 	169.2
scalar RSUExampleScenario.node[75].veinsmobility 	stopTime 	350
scalar RSUExampleScenario.node[75].veinsmobility 	minSpeed 	0
scalar RSUExampleScenario.node[75].veinsmobility 	maxSpeed 	13.99999478973
scalar RSUExampleScenario.node[75].veinsmobility 	totalDistance 	658.47830969268
scalar RSUExampleScenario.node[75].veinsmobility 	totalCO2Emission 	280.91380075692
scalar RSUExampleScenario.node[76].veinsmobility 	startTime 	183.2
scalar RSUExampleScenario.node[76].veinsmobility 	totalTime 	166.8
scalar RSUExampleScenario.node[76].veinsmobility 	stopTime 	350
scalar RSUExampleScenario.node[76].veinsmobility 	minSpeed 	0
scalar RSUExampleScenario.node[76].veinsmobility 	maxSpeed 	13.999954824247
scalar RSUExampleScenario.node[76].veinsmobility 	totalDistance 	624.29963586603
scalar RSUExampleScenario.node[76].veinsmobility 	totalCO2Emission 	275.3325716926
scalar RSUExampleScenario.node[77].veinsmobility 	startTime 	185.6
scalar RSUExampleScenario.node[77].veinsmobility 	totalTime 	164.4
scalar RSUExampleScenario.node[77].veinsmobility 	stopTime 	350
scalar RSUExampleScenario.node[77].veinsmobility 	minSpeed 	0
scalar RSUExampleScenario.node[77].veinsmobility 	maxSpeed 	13.998295791538
scalar RSUExampleScenario.node[77].veinsmobility 	totalDistance 	590.06084392408
scalar RSUExampleScenario.node[77].veinsmobility 	totalCO2Emission 	270.84558246384
scalar RSUExampleScenario.node[78].veinsmobility 	startTime 	188
scalar RSUExampleScenario.node[78].veinsmobility 	totalTime 	162
scalar RSUExampleScenario.node[78].veinsmobility 	stopTime 	350
scalar RSUExampleScenario.node[78].veinsmobility 	minSpeed 	0
scalar RSUExampleScenario.node[78].veinsmobility 	maxSpeed 	13.999783283779
scalar RSUExampleScenario.node[78].veinsmobility 	totalDistance 	556.25769662285
scalar RSUExampleScenario.node[78].veinsmobility 	totalCO2Emission 	266.37416198465
scalar RSUExampleScenario.node[79].veinsmobility 	startTime 	190.4
scalar RSUExampleScenario.node[79].veinsmobility 	totalTime 	159.6
scalar RSUExampleScenario.node[79].veinsmobility 	stopTime 	350
scalar RSUExampleScenario.node[79].veinsmobility 	minSpeed 	0
scalar RSUExampleScenario.node[79].veinsmobility 	maxSpeed 	13.998272651907
scalar RSUExampleScenario.node[79].veinsmobility 	totalDistance 	524.60080239675
scalar RSUExampleScenario.node[79].veinsmobility 	totalCO2Emission 	259.6173187535
scalar RSUExampleScenario.node[8].veinsmobility 	startTime 	19.3
scalar RSUExampleScenario.node[8].veinsmobility 	totalTime 	330.7
scalar RSUExampleScenario.node[8].veinsmobility 	stopTime 	350
scalar RSUExampleScenario.node[8].veinsmobility 	minSpeed 	0
scalar RSUExampleScenario.node[8].veinsmobility 	maxSpeed 	13.999967981407
scalar RSUExampleScenario.node[8].veinsmobility 	totalDistance 	2856.6824174276
scalar RSUExampleScenario.node[8].veinsmobility 	totalCO2Emission 	676.52737745198
scalar RSUExampleScenario.node[80].veinsmobility 	startTime 	192.9
scalar RSUExampleScenario.node[80].veinsmobility 	totalTime 	157.1
scalar RSUExampleScenario.node[80].veinsmobility 	stopTime 	350
scalar RSUExampleScenario.node[80].veinsmobility 	minSpeed 	0
scalar RSUExampleScenario.node[80].veinsmobility 	maxSpeed 	13.99990589015
scalar RSUExampleScenario.node[80].veinsmobility 	totalDistance 	491.27760845968
scalar RSUExampleScenario.node[80].veinsmobility 	totalCO2Emission 	254.62287607679
scalar RSUExampleScenario.node[81].veinsmobility 	startTime 	195.3
scalar RSUExampleScenario.node[81].veinsmobility 	totalTime 	154.7
scalar RSUExampleScenario.node[81].veinsmobility 	stopTime 	350
scalar RSUExampleScenario.node[81].veinsmobility 	minSpeed 	0
scalar RSUExampleScenario.node[81].veinsmobility 	maxSpeed 	13.999544394142
scalar RSUExampleScenario.node[81].veinsmobility 	totalDistance 	457.1019299232
scalar RSUExampleScenario.node[81].veinsmobility 	totalCO2Emission 	248.66566820514
scalar RSUExampleScenario.node[82].veinsmobility 	startTime 	197.7
scalar RSUExampleScenario.node[82].veinsmobility 	totalTime 	152.3
scalar RSUExampleScenario.node[82].veinsmobility 	stopTime 	350
scalar RSUExampleScenario.node[82].veinsmobility 	minSpeed 	0
scalar RSUExampleScenario.node[82].veinsmobility 	maxSpeed 	13.999437665872
scalar RSUExampleScenario.node[82].veinsmobility 	totalDistance 	424.59643817966
scalar RSUExampleScenario.node[82].veinsmobility 	totalCO2Emission 	243.03417064358
scalar RSUExampleScenario.node[83].veinsmobility 	startTime 	200.1
scalar RSUExampleScenario.node[83].veinsmobility 	totalTime 	149.9
scalar RSUExampleScenario.node[83].veinsmobility 	stopTime 	350
scalar RSUExampleScenario.node[83].veinsmobility 	minSpeed 	0
scalar RSUExampleScenario.node[83].veinsmobility 	maxSpeed 	13.999797630017
scalar RSUExampleScenario.node[83].veinsmobility 	totalDistance 	389.80091810555
scalar RSUExampleScenario.node[83].veinsmobility 	totalCO2Emission 	237.26427622159
scalar RSUExampleScenario.node[84].veinsmobility 	startTime 	202.5
scalar RSUExampleScenario.node[84].veinsmobility 	totalTime 	147.5
scalar RSUExampleScenario.node[84].veinsmobility 	stopTime 	350
scalar RSUExampleScenario.node[84].veinsmobility 	minSpeed 	0
scalar RSUExampleScenario.node[84].veinsmobility 	maxSpeed 	13.99230251048
scalar RSUExampleScenario.node[84].veinsmobility 	totalDistance 	355.9828864812
scalar RSUExampleScenario.node[84].veinsmobility 	totalCO2Emission 	231.15256811106
scalar RSUExampleScenario.node[85].veinsmobility 	startTime 	204.9
scalar RSUExampleScenario.node[85].veinsmobility 	totalTime 	145.1
scalar RSUExampleScenario.node[85].veinsmobility 	stopTime 	350
scalar RSUExampleScenario.node[85].veinsmobility 	minSpeed 	0
scalar RSUExampleScenario.node[85].veinsmobility 	maxSpeed 	13.992123997419
scalar RSUExampleScenario.node[85].veinsmobility 	totalDistance 	323.44662683791
scalar RSUExampleScenario.node[85].veinsmobility 	totalCO2Emission 	225.74937155587
scalar RSUExampleScenario.node[86].veinsmobility 	startTime 	207.3
scalar RSUExampleScenario.node[86].veinsmobility 	totalTime 	142.7
scalar RSUExampleScenario.node[86].veinsmobility 	stopTime 	350
scalar RSUExampleScenario.node[86].veinsmobility 	minSpeed 	0
scalar RSUExampleScenario.node[86].veinsmobility 	maxSpeed 	13.904765598834
scalar RSUExampleScenario.node[86].veinsmobility 	totalDistance 	291.19984606121
scalar RSUExampleScenario.node[86].veinsmobility 	totalCO2Emission 	219.70863150987
scalar RSUExampleScenario.node[87].veinsmobility 	startTime 	209.7
scalar RSUExampleScenario.node[87].veinsmobility 	totalTime 	140.3
scalar RSUExampleScenario.node[87].veinsmobility 	stopTime 	350
scalar RSUExampleScenario.node[87].veinsmobility 	minSpeed 	0
scalar RSUExampleScenario.node[87].veinsmobility 	maxSpeed 	13.845278209674
scalar RSUExampleScenario.node[87].veinsmobility 	totalDistance 	250.78346165521
scalar RSUExampleScenario.node[87].veinsmobility 	totalCO2Emission 	202.5169187307
scalar RSUExampleScenario.node[88].veinsmobility 	startTime 	212.1
scalar RSUExampleScenario.node[88].veinsmobility 	totalTime 	137.9
scalar RSUExampleScenario.node[88].veinsmobility 	stopTime 	350
scalar RSUExampleScenario.node[88].veinsmobility 	minSpeed 	0
scalar RSUExampleScenario.node[88].veinsmobility 	maxSpeed 	13.834456925793
scalar RSUExampleScenario.node[88].veinsmobility 	totalDistance 	226.67060067838
scalar RSUExampleScenario.node[88].veinsmobility 	totalCO2Emission 	189.64319999353
scalar RSUExampleScenario.node[89].veinsmobility 	startTime 	214.5
scalar RSUExampleScenario.node[89].veinsmobility 	totalTime 	135.5
scalar RSUExampleScenario.node[89].veinsmobility 	stopTime 	350
scalar RSUExampleScenario.node[89].veinsmobility 	minSpeed 	0
scalar RSUExampleScenario.node[89].veinsmobility 	maxSpeed 	13.873148832382
scalar RSUExampleScenario.node[89].veinsmobility 	totalDistance 	215.95527774572
scalar RSUExampleScenario.node[89].veinsmobility 	totalCO2Emission 	186.24770644783
scalar RSUExampleScenario.node[9].veinsmobility 	startTime 	21.7
scalar RSUExampleScenario.node[9].veinsmobility 	totalTime 	328.3
scalar RSUExampleScenario.node[9].veinsmobility 	stopTime 	350
scalar RSUExampleScenario.node[9].veinsmobility 	minSpeed 	0
scalar RSUExampleScenario.node[9].veinsmobility 	maxSpeed 	13.999735685438
scalar RSUExampleScenario.node[9].veinsmobility 	totalDistance 	2829.5129235421
scalar RSUExampleScenario.node[9].veinsmobility 	totalCO2Emission 	666.01503855133
scalar RSUExampleScenario.node[90].veinsmobility 	startTime 	217
scalar RSUExampleScenario.node[90].veinsmobility 	totalTime 	133
scalar RSUExampleScenario.node[90].veinsmobility 	stopTime 	350
scalar RSUExampleScenario.node[90].veinsmobility 	minSpeed 	0
scalar RSUExampleScenario.node[90].veinsmobility 	maxSpeed 	13.87732850132
scalar RSUExampleScenario.node[90].veinsmobility 	totalDistance 	202.55736338691
scalar RSUExampleScenario.node[90].veinsmobility 	totalCO2Emission 	183.154464977
scalar RSUExampleScenario.node[91].veinsmobility 	startTime 	219.4
scalar RSUExampleScenario.node[91].veinsmobility 	totalTime 	130.6
scalar RSUExampleScenario.node[91].veinsmobility 	stopTime 	350
scalar RSUExampleScenario.node[91].veinsmobility 	minSpeed 	0
scalar RSUExampleScenario.node[91].veinsmobility 	maxSpeed 	13.835152174598
scalar RSUExampleScenario.node[91].veinsmobility 	totalDistance 	185.72930708752
scalar RSUExampleScenario.node[91].veinsmobility 	totalCO2Emission 	181.42139671878
scalar RSUExampleScenario.node[92].veinsmobility 	startTime 	221.8
scalar RSUExampleScenario.node[92].veinsmobility 	totalTime 	128.2
scalar RSUExampleScenario.node[92].veinsmobility 	stopTime 	350
scalar RSUExampleScenario.node[92].veinsmobility 	minSpeed 	0
scalar RSUExampleScenario.node[92].veinsmobility 	maxSpeed 	13.830573405193
scalar RSUExampleScenario.node[92].veinsmobility 	totalDistance 	152.95084246235
scalar RSUExampleScenario.node[92].veinsmobility 	totalCO2Emission 	168.82774812041
scalar RSUExampleScenario.node[93].veinsmobility 	startTime 	224.2
scalar RSUExampleScenario.node[93].veinsmobility 	totalTime 	125.8
scalar RSUExampleScenario.node[93].veinsmobility 	stopTime 	350
scalar RSUExampleScenario.node[93].veinsmobility 	minSpeed 	0
scalar RSUExampleScenario.node[93].veinsmobility 	maxSpeed 	13.866049068829
scalar RSUExampleScenario.node[93].veinsmobility 	totalDistance 	123.60632654562
scalar RSUExampleScenario.node[93].veinsmobility 	totalCO2Emission 	154.61771415975
scalar RSUExampleScenario.node[94].veinsmobility 	startTime 	226.6
scalar RSUExampleScenario.node[94].veinsmobility 	totalTime 	123.4
scalar RSUExampleScenario.node[94].veinsmobility 	stopTime 	350
scalar RSUExampleScenario.node[94].veinsmobility 	minSpeed 	0
scalar RSUExampleScenario.node[94].veinsmobility 	maxSpeed 	13.796342820907
scalar RSUExampleScenario.node[94].veinsmobility 	totalDistance 	112.30137397744
scalar RSUExampleScenario.node[94].veinsmobility 	totalCO2Emission 	148.79795474984
scalar RSUExampleScenario.node[95].veinsmobility 	startTime 	229
scalar RSUExampleScenario.node[95].veinsmobility 	totalTime 	121
scalar RSUExampleScenario.node[95].veinsmobility 	stopTime 	350
scalar RSUExampleScenario.node[95].veinsmobility 	minSpeed 	0
scalar RSUExampleScenario.node[95].veinsmobility 	maxSpeed 	13.860653530748
scalar RSUExampleScenario.node[95].veinsmobility 	totalDistance 	99.249632220307
scalar RSUExampleScenario.node[95].veinsmobility 	totalCO2Emission 	144.999985219
scalar RSUExampleScenario.node[96].veinsmobility 	startTime 	231.4
scalar RSUExampleScenario.node[96].veinsmobility 	totalTime 	118.6
scalar RSUExampleScenario.node[96].veinsmobility 	stopTime 	350
scalar RSUExampleScenario.node[96].veinsmobility 	minSpeed 	0
scalar RSUExampleScenario.node[96].veinsmobility 	maxSpeed 	13.884996837929
scalar RSUExampleScenario.node[96].veinsmobility 	totalDistance 	83.633208781964
scalar RSUExampleScenario.node[96].veinsmobility 	totalCO2Emission 	142.6237266322
scalar RSUExampleScenario.node[97].veinsmobility 	startTime 	233.8
scalar RSUExampleScenario.node[97].veinsmobility 	totalTime 	116.2
scalar RSUExampleScenario.node[97].veinsmobility 	stopTime 	350
scalar RSUExampleScenario.node[97].veinsmobility 	minSpeed 	0
scalar RSUExampleScenario.node[97].veinsmobility 	maxSpeed 	12.047936694074
scalar RSUExampleScenario.node[97].veinsmobility 	totalDistance 	54.683604254603
scalar RSUExampleScenario.node[97].veinsmobility 	totalCO2Emission 	133.7284850057
scalar RSUExampleScenario.node[98].veinsmobility 	startTime 	236.2
scalar RSUExampleScenario.node[98].veinsmobility 	totalTime 	113.8
scalar RSUExampleScenario.node[98].veinsmobility 	stopTime 	350
scalar RSUExampleScenario.node[98].veinsmobility 	minSpeed 	0
scalar RSUExampleScenario.node[98].veinsmobility 	maxSpeed 	7.5380998409389
scalar RSUExampleScenario.node[98].veinsmobility 	totalDistance 	21.554980649429
scalar RSUExampleScenario.node[98].veinsmobility 	totalCO2Emission 	118.95226698839
scalar RSUExampleScenario.node[99].veinsmobility 	startTime 	238.6
scalar RSUExampleScenario.node[99].veinsmobility 	totalTime 	111.4
scalar RSUExampleScenario.node[99].veinsmobility 	stopTime 	350
scalar RSUExampleScenario.node[99].veinsmobility 	minSpeed 	0
scalar RSUExampleScenario.node[99].veinsmobility 	maxSpeed 	2.9331325124722
scalar RSUExampleScenario.node[99].veinsmobility 	totalDistance 	3.1662993388688
scalar RSUExampleScenario.node[99].veinsmobility 	totalCO2Emission 	109.68376818592
