version 2
run statisticRVV-188-20150325-23:07:55-23024
attr c 7
attr configname statisticRVV
attr datetime 20150325-23:07:55
attr experiment statisticRVV
attr inifile omnetpp.ini
attr iterationvars "$sc=\"erlangen-medium.launchd.xml\", $p=1/8, $c=7"
attr iterationvars2 "$sc=\"erlangen-medium.launchd.xml\", $p=1/8, $c=7, $repetition=8"
attr measurement "$sc=\"erlangen-medium.launchd.xml\", $p=1/8, $c=7"
attr network RSUExampleScenario
attr p 1/8
attr processid 23024
attr repetition 8
attr replication #8
attr resultdir results
attr runnumber 188
attr sc "\"erlangen-medium.launchd.xml\""
attr seedset 188

scalar . 	c 	7
scalar RSUExampleScenario.node[0].veinsmobility 	startTime 	0.1
scalar RSUExampleScenario.node[0].veinsmobility 	totalTime 	264.2
scalar RSUExampleScenario.node[0].veinsmobility 	stopTime 	264.4
scalar RSUExampleScenario.node[0].veinsmobility 	minSpeed 	0.25334429097688
scalar RSUExampleScenario.node[0].veinsmobility 	maxSpeed 	13.999972100849
scalar RSUExampleScenario.node[0].veinsmobility 	totalDistance 	3409.4732426603
scalar RSUExampleScenario.node[0].veinsmobility 	totalCO2Emission 	698.05016544403
scalar RSUExampleScenario.node[1].veinsmobility 	startTime 	3.1
scalar RSUExampleScenario.node[1].veinsmobility 	totalTime 	265.2
scalar RSUExampleScenario.node[1].veinsmobility 	stopTime 	268.4
scalar RSUExampleScenario.node[1].veinsmobility 	minSpeed 	0.25368787376513
scalar RSUExampleScenario.node[1].veinsmobility 	maxSpeed 	13.99999273865
scalar RSUExampleScenario.node[1].veinsmobility 	totalDistance 	3409.3885582268
scalar RSUExampleScenario.node[1].veinsmobility 	totalCO2Emission 	690.66906837061
scalar RSUExampleScenario.node[2].veinsmobility 	startTime 	6.1
scalar RSUExampleScenario.node[2].veinsmobility 	totalTime 	265.8
scalar RSUExampleScenario.node[2].veinsmobility 	stopTime 	272
scalar RSUExampleScenario.node[2].veinsmobility 	minSpeed 	0.25565406116331
scalar RSUExampleScenario.node[2].veinsmobility 	maxSpeed 	13.999858391541
scalar RSUExampleScenario.node[2].veinsmobility 	totalDistance 	3409.7142301148
scalar RSUExampleScenario.node[2].veinsmobility 	totalCO2Emission 	694.39238267049
scalar RSUExampleScenario.node[3].veinsmobility 	startTime 	9.1
scalar RSUExampleScenario.node[3].veinsmobility 	totalTime 	266.2
scalar RSUExampleScenario.node[3].veinsmobility 	stopTime 	275.4
scalar RSUExampleScenario.node[3].veinsmobility 	minSpeed 	0.2588942721372
scalar RSUExampleScenario.node[3].veinsmobility 	maxSpeed 	13.999887716617
scalar RSUExampleScenario.node[3].veinsmobility 	totalDistance 	3409.4293687989
scalar RSUExampleScenario.node[3].veinsmobility 	totalCO2Emission 	691.66965416858
scalar RSUExampleScenario.node[4].veinsmobility 	startTime 	12.1
scalar RSUExampleScenario.node[4].veinsmobility 	totalTime 	266.5
scalar RSUExampleScenario.node[4].veinsmobility 	stopTime 	278.7
scalar RSUExampleScenario.node[4].veinsmobility 	minSpeed 	0.25894780010683
scalar RSUExampleScenario.node[4].veinsmobility 	maxSpeed 	13.999964705745
scalar RSUExampleScenario.node[4].veinsmobility 	totalDistance 	3409.3220694809
scalar RSUExampleScenario.node[4].veinsmobility 	totalCO2Emission 	696.44280131115
scalar RSUExampleScenario.node[5].veinsmobility 	startTime 	15.1
scalar RSUExampleScenario.node[5].veinsmobility 	totalTime 	266.6
scalar RSUExampleScenario.node[5].veinsmobility 	stopTime 	281.8
scalar RSUExampleScenario.node[5].veinsmobility 	minSpeed 	0.25957298592711
scalar RSUExampleScenario.node[5].veinsmobility 	maxSpeed 	13.999922524949
scalar RSUExampleScenario.node[5].veinsmobility 	totalDistance 	3413.8551666756
scalar RSUExampleScenario.node[5].veinsmobility 	totalCO2Emission 	690.7734208998
scalar RSUExampleScenario.node[6].veinsmobility 	startTime 	18.1
scalar RSUExampleScenario.node[6].veinsmobility 	totalTime 	266.8
scalar RSUExampleScenario.node[6].veinsmobility 	stopTime 	285
scalar RSUExampleScenario.node[6].veinsmobility 	minSpeed 	0.25193758491916
scalar RSUExampleScenario.node[6].veinsmobility 	maxSpeed 	13.9999948101
scalar RSUExampleScenario.node[6].veinsmobility 	totalDistance 	3409.6640846591
scalar RSUExampleScenario.node[6].veinsmobility 	totalCO2Emission 	695.30951194449
scalar RSUExampleScenario.node[7].veinsmobility 	startTime 	21.1
scalar RSUExampleScenario.node[7].veinsmobility 	totalTime 	266.9
scalar RSUExampleScenario.node[7].veinsmobility 	stopTime 	288.1
scalar RSUExampleScenario.node[7].veinsmobility 	minSpeed 	0.25774436775874
scalar RSUExampleScenario.node[7].veinsmobility 	maxSpeed 	13.999992017818
scalar RSUExampleScenario.node[7].veinsmobility 	totalDistance 	3413.7330323428
scalar RSUExampleScenario.node[7].veinsmobility 	totalCO2Emission 	690.93778297375
scalar RSUExampleScenario.node[8].veinsmobility 	startTime 	24.1
scalar RSUExampleScenario.node[8].veinsmobility 	totalTime 	266.9
scalar RSUExampleScenario.node[8].veinsmobility 	stopTime 	291.1
scalar RSUExampleScenario.node[8].veinsmobility 	minSpeed 	0.25056404283736
scalar RSUExampleScenario.node[8].veinsmobility 	maxSpeed 	13.999974700173
scalar RSUExampleScenario.node[8].veinsmobility 	totalDistance 	3409.4701428926
scalar RSUExampleScenario.node[8].veinsmobility 	totalCO2Emission 	688.85487514286
scalar RSUExampleScenario.node[9].veinsmobility 	startTime 	27.1
scalar RSUExampleScenario.node[9].veinsmobility 	totalTime 	267.1
scalar RSUExampleScenario.node[9].veinsmobility 	stopTime 	294.3
scalar RSUExampleScenario.node[9].veinsmobility 	minSpeed 	0.24906152309896
scalar RSUExampleScenario.node[9].veinsmobility 	maxSpeed 	13.999997042364
scalar RSUExampleScenario.node[9].veinsmobility 	totalDistance 	3413.3919834553
scalar RSUExampleScenario.node[9].veinsmobility 	totalCO2Emission 	689.36524828536
scalar RSUExampleScenario.node[10].veinsmobility 	startTime 	30.1
scalar RSUExampleScenario.node[10].veinsmobility 	totalTime 	267.1
scalar RSUExampleScenario.node[10].veinsmobility 	stopTime 	297.3
scalar RSUExampleScenario.node[10].veinsmobility 	minSpeed 	0.24758006112068
scalar RSUExampleScenario.node[10].veinsmobility 	maxSpeed 	13.999831973403
scalar RSUExampleScenario.node[10].veinsmobility 	totalDistance 	3409.6103242114
scalar RSUExampleScenario.node[10].veinsmobility 	totalCO2Emission 	693.51497740244
scalar RSUExampleScenario.node[11].veinsmobility 	startTime 	33.1
scalar RSUExampleScenario.node[11].veinsmobility 	totalTime 	267.1
scalar RSUExampleScenario.node[11].veinsmobility 	stopTime 	300.3
scalar RSUExampleScenario.node[11].veinsmobility 	minSpeed 	0.25875515838666
scalar RSUExampleScenario.node[11].veinsmobility 	maxSpeed 	13.999941378513
scalar RSUExampleScenario.node[11].veinsmobility 	totalDistance 	3413.9397458318
scalar RSUExampleScenario.node[11].veinsmobility 	totalCO2Emission 	694.02514646128
scalar RSUExampleScenario.node[12].veinsmobility 	startTime 	36.1
scalar RSUExampleScenario.node[12].veinsmobility 	totalTime 	267.1
scalar RSUExampleScenario.node[12].veinsmobility 	stopTime 	303.3
scalar RSUExampleScenario.node[12].veinsmobility 	minSpeed 	0.25147473496711
scalar RSUExampleScenario.node[12].veinsmobility 	maxSpeed 	13.999902155474
scalar RSUExampleScenario.node[12].veinsmobility 	totalDistance 	3409.704945283
scalar RSUExampleScenario.node[12].veinsmobility 	totalCO2Emission 	691.72072620495
scalar RSUExampleScenario.node[13].veinsmobility 	startTime 	39.1
scalar RSUExampleScenario.node[13].veinsmobility 	totalTime 	267.1
scalar RSUExampleScenario.node[13].veinsmobility 	stopTime 	306.3
scalar RSUExampleScenario.node[13].veinsmobility 	minSpeed 	0.25546117929392
scalar RSUExampleScenario.node[13].veinsmobility 	maxSpeed 	13.999941558093
scalar RSUExampleScenario.node[13].veinsmobility 	totalDistance 	3413.7661710858
scalar RSUExampleScenario.node[13].veinsmobility 	totalCO2Emission 	687.86290094262
scalar RSUExampleScenario.node[14].veinsmobility 	startTime 	42.1
scalar RSUExampleScenario.node[14].veinsmobility 	totalTime 	267.1
scalar RSUExampleScenario.node[14].veinsmobility 	stopTime 	309.3
scalar RSUExampleScenario.node[14].veinsmobility 	minSpeed 	0.25713790624891
scalar RSUExampleScenario.node[14].veinsmobility 	maxSpeed 	13.999884202261
scalar RSUExampleScenario.node[14].veinsmobility 	totalDistance 	3409.3763934156
scalar RSUExampleScenario.node[14].veinsmobility 	totalCO2Emission 	691.30748878635
scalar RSUExampleScenario.node[15].veinsmobility 	startTime 	45.1
scalar RSUExampleScenario.node[15].veinsmobility 	totalTime 	267.1
scalar RSUExampleScenario.node[15].veinsmobility 	stopTime 	312.3
scalar RSUExampleScenario.node[15].veinsmobility 	minSpeed 	0.25762230315222
scalar RSUExampleScenario.node[15].veinsmobility 	maxSpeed 	13.999952059237
scalar RSUExampleScenario.node[15].veinsmobility 	totalDistance 	3413.4824986646
scalar RSUExampleScenario.node[15].veinsmobility 	totalCO2Emission 	689.08871836234
scalar RSUExampleScenario.node[16].veinsmobility 	startTime 	48.1
scalar RSUExampleScenario.node[16].veinsmobility 	totalTime 	267.1
scalar RSUExampleScenario.node[16].veinsmobility 	stopTime 	315.3
scalar RSUExampleScenario.node[16].veinsmobility 	minSpeed 	0.24824382474832
scalar RSUExampleScenario.node[16].veinsmobility 	maxSpeed 	13.999840009068
scalar RSUExampleScenario.node[16].veinsmobility 	totalDistance 	3409.9265130631
scalar RSUExampleScenario.node[16].veinsmobility 	totalCO2Emission 	692.18944052965
scalar RSUExampleScenario.node[17].veinsmobility 	startTime 	51.1
scalar RSUExampleScenario.node[17].veinsmobility 	totalTime 	267.1
scalar RSUExampleScenario.node[17].veinsmobility 	stopTime 	318.3
scalar RSUExampleScenario.node[17].veinsmobility 	minSpeed 	0.25777466917643
scalar RSUExampleScenario.node[17].veinsmobility 	maxSpeed 	13.99999666014
scalar RSUExampleScenario.node[17].veinsmobility 	totalDistance 	3413.8069979067
scalar RSUExampleScenario.node[17].veinsmobility 	totalCO2Emission 	691.31362343211
scalar RSUExampleScenario.node[18].veinsmobility 	startTime 	54.1
scalar RSUExampleScenario.node[18].veinsmobility 	totalTime 	267.1
scalar RSUExampleScenario.node[18].veinsmobility 	stopTime 	321.3
scalar RSUExampleScenario.node[18].veinsmobility 	minSpeed 	0.25074772383296
scalar RSUExampleScenario.node[18].veinsmobility 	maxSpeed 	13.999887590369
scalar RSUExampleScenario.node[18].veinsmobility 	totalDistance 	3409.6815859949
scalar RSUExampleScenario.node[18].veinsmobility 	totalCO2Emission 	691.82090782021
scalar RSUExampleScenario.node[19].veinsmobility 	startTime 	57.1
scalar RSUExampleScenario.node[19].veinsmobility 	totalTime 	267.1
scalar RSUExampleScenario.node[19].veinsmobility 	stopTime 	324.3
scalar RSUExampleScenario.node[19].veinsmobility 	minSpeed 	0.25618020680244
scalar RSUExampleScenario.node[19].veinsmobility 	maxSpeed 	13.99992848078
scalar RSUExampleScenario.node[19].veinsmobility 	totalDistance 	3413.537983832
scalar RSUExampleScenario.node[19].veinsmobility 	totalCO2Emission 	693.65927640097
scalar RSUExampleScenario.node[20].veinsmobility 	startTime 	60.1
scalar RSUExampleScenario.node[20].veinsmobility 	totalTime 	267.1
scalar RSUExampleScenario.node[20].veinsmobility 	stopTime 	327.3
scalar RSUExampleScenario.node[20].veinsmobility 	minSpeed 	0.25901078608586
scalar RSUExampleScenario.node[20].veinsmobility 	maxSpeed 	13.999964659042
scalar RSUExampleScenario.node[20].veinsmobility 	totalDistance 	3409.5929038956
scalar RSUExampleScenario.node[20].veinsmobility 	totalCO2Emission 	688.93200022015
scalar RSUExampleScenario.node[21].veinsmobility 	startTime 	63.1
scalar RSUExampleScenario.node[21].veinsmobility 	totalTime 	267.1
scalar RSUExampleScenario.node[21].veinsmobility 	stopTime 	330.3
scalar RSUExampleScenario.node[21].veinsmobility 	minSpeed 	0.25390498921135
scalar RSUExampleScenario.node[21].veinsmobility 	maxSpeed 	13.999827588783
scalar RSUExampleScenario.node[21].veinsmobility 	totalDistance 	3413.4363807316
scalar RSUExampleScenario.node[21].veinsmobility 	totalCO2Emission 	691.65895275973
scalar RSUExampleScenario.node[22].veinsmobility 	startTime 	66.1
scalar RSUExampleScenario.node[22].veinsmobility 	totalTime 	267.1
scalar RSUExampleScenario.node[22].veinsmobility 	stopTime 	333.3
scalar RSUExampleScenario.node[22].veinsmobility 	minSpeed 	0.24955183679378
scalar RSUExampleScenario.node[22].veinsmobility 	maxSpeed 	13.999893516779
scalar RSUExampleScenario.node[22].veinsmobility 	totalDistance 	3409.6469257046
scalar RSUExampleScenario.node[22].veinsmobility 	totalCO2Emission 	691.74367331547
scalar RSUExampleScenario.node[23].veinsmobility 	startTime 	69.1
scalar RSUExampleScenario.node[23].veinsmobility 	totalTime 	267.2
scalar RSUExampleScenario.node[23].veinsmobility 	stopTime 	336.4
scalar RSUExampleScenario.node[23].veinsmobility 	minSpeed 	0.25477884651558
scalar RSUExampleScenario.node[23].veinsmobility 	maxSpeed 	13.999997470928
scalar RSUExampleScenario.node[23].veinsmobility 	totalDistance 	3414.2101936156
scalar RSUExampleScenario.node[23].veinsmobility 	totalCO2Emission 	691.10596690975
scalar RSUExampleScenario.node[24].veinsmobility 	startTime 	72.1
scalar RSUExampleScenario.node[24].veinsmobility 	totalTime 	267.2
scalar RSUExampleScenario.node[24].veinsmobility 	stopTime 	339.4
scalar RSUExampleScenario.node[24].veinsmobility 	minSpeed 	0.25062658144953
scalar RSUExampleScenario.node[24].veinsmobility 	maxSpeed 	13.999940840167
scalar RSUExampleScenario.node[24].veinsmobility 	totalDistance 	3409.874814264
scalar RSUExampleScenario.node[24].veinsmobility 	totalCO2Emission 	692.61569483382
scalar RSUExampleScenario.node[25].veinsmobility 	startTime 	75.1
scalar RSUExampleScenario.node[25].veinsmobility 	totalTime 	267.2
scalar RSUExampleScenario.node[25].veinsmobility 	stopTime 	342.4
scalar RSUExampleScenario.node[25].veinsmobility 	minSpeed 	0.25129199515749
scalar RSUExampleScenario.node[25].veinsmobility 	maxSpeed 	13.999984999762
scalar RSUExampleScenario.node[25].veinsmobility 	totalDistance 	3409.5287172483
scalar RSUExampleScenario.node[25].veinsmobility 	totalCO2Emission 	689.12630608956
scalar RSUExampleScenario.node[26].veinsmobility 	startTime 	78.1
scalar RSUExampleScenario.node[26].veinsmobility 	totalTime 	267.3
scalar RSUExampleScenario.node[26].veinsmobility 	stopTime 	345.5
scalar RSUExampleScenario.node[26].veinsmobility 	minSpeed 	0.25870547311008
scalar RSUExampleScenario.node[26].veinsmobility 	maxSpeed 	13.99994641447
scalar RSUExampleScenario.node[26].veinsmobility 	totalDistance 	3414.1483520607
scalar RSUExampleScenario.node[26].veinsmobility 	totalCO2Emission 	691.1967975479
scalar RSUExampleScenario.node[27].veinsmobility 	startTime 	81.1
scalar RSUExampleScenario.node[27].veinsmobility 	totalTime 	267.3
scalar RSUExampleScenario.node[27].veinsmobility 	stopTime 	348.5
scalar RSUExampleScenario.node[27].veinsmobility 	minSpeed 	0.25311720017483
scalar RSUExampleScenario.node[27].veinsmobility 	maxSpeed 	13.999981952987
scalar RSUExampleScenario.node[27].veinsmobility 	totalDistance 	3409.4872940278
scalar RSUExampleScenario.node[27].veinsmobility 	totalCO2Emission 	689.91124739168
scalar RSUExampleScenario.node[28].veinsmobility 	startTime 	84.1
scalar RSUExampleScenario.node[28].veinsmobility 	totalTime 	267.4
scalar RSUExampleScenario.node[28].veinsmobility 	stopTime 	351.6
scalar RSUExampleScenario.node[28].veinsmobility 	minSpeed 	0.24845166323916
scalar RSUExampleScenario.node[28].veinsmobility 	maxSpeed 	13.999956997731
scalar RSUExampleScenario.node[28].veinsmobility 	totalDistance 	3409.9646739302
scalar RSUExampleScenario.node[28].veinsmobility 	totalCO2Emission 	689.64255410048
scalar RSUExampleScenario.node[29].veinsmobility 	startTime 	87.1
scalar RSUExampleScenario.node[29].veinsmobility 	totalTime 	267.5
scalar RSUExampleScenario.node[29].veinsmobility 	stopTime 	354.7
scalar RSUExampleScenario.node[29].veinsmobility 	minSpeed 	0.25339837684296
scalar RSUExampleScenario.node[29].veinsmobility 	maxSpeed 	13.999986645402
scalar RSUExampleScenario.node[29].veinsmobility 	totalDistance 	3414.1428621037
scalar RSUExampleScenario.node[29].veinsmobility 	totalCO2Emission 	689.45259670616
scalar RSUExampleScenario.node[30].veinsmobility 	startTime 	90.1
scalar RSUExampleScenario.node[30].veinsmobility 	totalTime 	267.6
scalar RSUExampleScenario.node[30].veinsmobility 	stopTime 	357.8
scalar RSUExampleScenario.node[30].veinsmobility 	minSpeed 	0.25618376589962
scalar RSUExampleScenario.node[30].veinsmobility 	maxSpeed 	13.999985771051
scalar RSUExampleScenario.node[30].veinsmobility 	totalDistance 	3409.6583251662
scalar RSUExampleScenario.node[30].veinsmobility 	totalCO2Emission 	691.68401787178
scalar RSUExampleScenario.node[31].veinsmobility 	startTime 	93.1
scalar RSUExampleScenario.node[31].veinsmobility 	totalTime 	267.7
scalar RSUExampleScenario.node[31].veinsmobility 	stopTime 	360.9
scalar RSUExampleScenario.node[31].veinsmobility 	minSpeed 	0.2490746783698
scalar RSUExampleScenario.node[31].veinsmobility 	maxSpeed 	13.99985524128
scalar RSUExampleScenario.node[31].veinsmobility 	totalDistance 	3413.6008813489
scalar RSUExampleScenario.node[31].veinsmobility 	totalCO2Emission 	693.81037827179
scalar RSUExampleScenario.node[32].veinsmobility 	startTime 	96.1
scalar RSUExampleScenario.node[32].veinsmobility 	totalTime 	267.9
scalar RSUExampleScenario.node[32].veinsmobility 	stopTime 	364.1
scalar RSUExampleScenario.node[32].veinsmobility 	minSpeed 	0.2536690053246
scalar RSUExampleScenario.node[32].veinsmobility 	maxSpeed 	13.999924673068
scalar RSUExampleScenario.node[32].veinsmobility 	totalDistance 	3409.951727624
scalar RSUExampleScenario.node[32].veinsmobility 	totalCO2Emission 	690.13912556063
scalar RSUExampleScenario.node[33].veinsmobility 	startTime 	99.1
scalar RSUExampleScenario.node[33].veinsmobility 	totalTime 	268
scalar RSUExampleScenario.node[33].veinsmobility 	stopTime 	367.2
scalar RSUExampleScenario.node[33].veinsmobility 	minSpeed 	0.2483804378428
scalar RSUExampleScenario.node[33].veinsmobility 	maxSpeed 	13.999903979816
scalar RSUExampleScenario.node[33].veinsmobility 	totalDistance 	3413.4654767298
scalar RSUExampleScenario.node[33].veinsmobility 	totalCO2Emission 	690.52442927278
scalar RSUExampleScenario.node[34].veinsmobility 	startTime 	102.1
scalar RSUExampleScenario.node[34].veinsmobility 	totalTime 	268.2
scalar RSUExampleScenario.node[34].veinsmobility 	stopTime 	370.4
scalar RSUExampleScenario.node[34].veinsmobility 	minSpeed 	0.25559104186227
scalar RSUExampleScenario.node[34].veinsmobility 	maxSpeed 	13.999992131989
scalar RSUExampleScenario.node[34].veinsmobility 	totalDistance 	3409.8721297261
scalar RSUExampleScenario.node[34].veinsmobility 	totalCO2Emission 	691.54812307377
scalar RSUExampleScenario.node[35].veinsmobility 	startTime 	105.1
scalar RSUExampleScenario.node[35].veinsmobility 	totalTime 	268.4
scalar RSUExampleScenario.node[35].veinsmobility 	stopTime 	373.6
scalar RSUExampleScenario.node[35].veinsmobility 	minSpeed 	0.25189104731916
scalar RSUExampleScenario.node[35].veinsmobility 	maxSpeed 	13.999803304477
scalar RSUExampleScenario.node[35].veinsmobility 	totalDistance 	3413.5262480956
scalar RSUExampleScenario.node[35].veinsmobility 	totalCO2Emission 	692.659759807
scalar RSUExampleScenario.node[36].veinsmobility 	startTime 	108.1
scalar RSUExampleScenario.node[36].veinsmobility 	totalTime 	268.6
scalar RSUExampleScenario.node[36].veinsmobility 	stopTime 	376.8
scalar RSUExampleScenario.node[36].veinsmobility 	minSpeed 	0.25331221975689
scalar RSUExampleScenario.node[36].veinsmobility 	maxSpeed 	13.999994786037
scalar RSUExampleScenario.node[36].veinsmobility 	totalDistance 	3409.2999988437
scalar RSUExampleScenario.node[36].veinsmobility 	totalCO2Emission 	690.6002304126
scalar RSUExampleScenario.node[37].veinsmobility 	startTime 	111.1
scalar RSUExampleScenario.node[37].veinsmobility 	totalTime 	268.9
scalar RSUExampleScenario.node[37].veinsmobility 	stopTime 	380.1
scalar RSUExampleScenario.node[37].veinsmobility 	minSpeed 	0.25153373954096
scalar RSUExampleScenario.node[37].veinsmobility 	maxSpeed 	13.99999599827
scalar RSUExampleScenario.node[37].veinsmobility 	totalDistance 	3414.0251717142
scalar RSUExampleScenario.node[37].veinsmobility 	totalCO2Emission 	692.42005499812
scalar RSUExampleScenario.node[38].veinsmobility 	startTime 	114.1
scalar RSUExampleScenario.node[38].veinsmobility 	totalTime 	269.2
scalar RSUExampleScenario.node[38].veinsmobility 	stopTime 	383.4
scalar RSUExampleScenario.node[38].veinsmobility 	minSpeed 	0.2477502939906
scalar RSUExampleScenario.node[38].veinsmobility 	maxSpeed 	13.999777046547
scalar RSUExampleScenario.node[38].veinsmobility 	totalDistance 	3409.3677383354
scalar RSUExampleScenario.node[38].veinsmobility 	totalCO2Emission 	691.48223917212
scalar RSUExampleScenario.node[39].veinsmobility 	startTime 	117.1
scalar RSUExampleScenario.node[39].veinsmobility 	totalTime 	269.6
scalar RSUExampleScenario.node[39].veinsmobility 	stopTime 	386.8
scalar RSUExampleScenario.node[39].veinsmobility 	minSpeed 	0.25072836645856
scalar RSUExampleScenario.node[39].veinsmobility 	maxSpeed 	13.999874590905
scalar RSUExampleScenario.node[39].veinsmobility 	totalDistance 	3413.8301522307
scalar RSUExampleScenario.node[39].veinsmobility 	totalCO2Emission 	695.22487620152
scalar RSUExampleScenario.node[40].veinsmobility 	startTime 	120.1
scalar RSUExampleScenario.node[40].veinsmobility 	totalTime 	270.1
scalar RSUExampleScenario.node[40].veinsmobility 	stopTime 	390.3
scalar RSUExampleScenario.node[40].veinsmobility 	minSpeed 	0.25377342352108
scalar RSUExampleScenario.node[40].veinsmobility 	maxSpeed 	13.999869624232
scalar RSUExampleScenario.node[40].veinsmobility 	totalDistance 	3410.0274611023
scalar RSUExampleScenario.node[40].veinsmobility 	totalCO2Emission 	692.74187949816
scalar RSUExampleScenario.node[41].veinsmobility 	startTime 	123.1
scalar RSUExampleScenario.node[41].veinsmobility 	totalTime 	270.6
scalar RSUExampleScenario.node[41].veinsmobility 	stopTime 	393.8
scalar RSUExampleScenario.node[41].veinsmobility 	minSpeed 	0.25976497325045
scalar RSUExampleScenario.node[41].veinsmobility 	maxSpeed 	13.999859024202
scalar RSUExampleScenario.node[41].veinsmobility 	totalDistance 	3413.7540404263
scalar RSUExampleScenario.node[41].veinsmobility 	totalCO2Emission 	691.24152029202
scalar RSUExampleScenario.node[42].veinsmobility 	startTime 	126.1
scalar RSUExampleScenario.node[42].veinsmobility 	totalTime 	271.2
scalar RSUExampleScenario.node[42].veinsmobility 	stopTime 	397.4
scalar RSUExampleScenario.node[42].veinsmobility 	minSpeed 	0.25925079186424
scalar RSUExampleScenario.node[42].veinsmobility 	maxSpeed 	13.999988047627
scalar RSUExampleScenario.node[42].veinsmobility 	totalDistance 	3410.1988521794
scalar RSUExampleScenario.node[42].veinsmobility 	totalCO2Emission 	694.69013442402
scalar RSUExampleScenario.node[43].veinsmobility 	startTime 	129.1
scalar RSUExampleScenario.node[43].veinsmobility 	totalTime 	271.9
scalar RSUExampleScenario.node[43].veinsmobility 	stopTime 	401.1
scalar RSUExampleScenario.node[43].veinsmobility 	minSpeed 	0.24803942796635
scalar RSUExampleScenario.node[43].veinsmobility 	maxSpeed 	13.999732689119
scalar RSUExampleScenario.node[43].veinsmobility 	totalDistance 	3410.1172169623
scalar RSUExampleScenario.node[43].veinsmobility 	totalCO2Emission 	692.77780289635
scalar RSUExampleScenario.node[44].veinsmobility 	startTime 	132.1
scalar RSUExampleScenario.node[44].veinsmobility 	totalTime 	272.5
scalar RSUExampleScenario.node[44].veinsmobility 	stopTime 	404.7
scalar RSUExampleScenario.node[44].veinsmobility 	minSpeed 	0.25593505387171
scalar RSUExampleScenario.node[44].veinsmobility 	maxSpeed 	13.999970261555
scalar RSUExampleScenario.node[44].veinsmobility 	totalDistance 	3413.4698819534
scalar RSUExampleScenario.node[44].veinsmobility 	totalCO2Emission 	690.47785842851
scalar RSUExampleScenario.node[45].veinsmobility 	startTime 	135.1
scalar RSUExampleScenario.node[45].veinsmobility 	totalTime 	273.1
scalar RSUExampleScenario.node[45].veinsmobility 	stopTime 	408.3
scalar RSUExampleScenario.node[45].veinsmobility 	minSpeed 	0.25220991076576
scalar RSUExampleScenario.node[45].veinsmobility 	maxSpeed 	13.999772854038
scalar RSUExampleScenario.node[45].veinsmobility 	totalDistance 	3410.0365026297
scalar RSUExampleScenario.node[45].veinsmobility 	totalCO2Emission 	694.30957660166
scalar RSUExampleScenario.node[46].veinsmobility 	startTime 	138.1
scalar RSUExampleScenario.node[46].veinsmobility 	totalTime 	273.8
scalar RSUExampleScenario.node[46].veinsmobility 	stopTime 	412
scalar RSUExampleScenario.node[46].veinsmobility 	minSpeed 	0.25813188232481
scalar RSUExampleScenario.node[46].veinsmobility 	maxSpeed 	13.999997926764
scalar RSUExampleScenario.node[46].veinsmobility 	totalDistance 	3413.6072747745
scalar RSUExampleScenario.node[46].veinsmobility 	totalCO2Emission 	692.03422015925
scalar RSUExampleScenario.node[47].veinsmobility 	startTime 	141.1
scalar RSUExampleScenario.node[47].veinsmobility 	totalTime 	274.5
scalar RSUExampleScenario.node[47].veinsmobility 	stopTime 	415.7
scalar RSUExampleScenario.node[47].veinsmobility 	minSpeed 	0.24908564176946
scalar RSUExampleScenario.node[47].veinsmobility 	maxSpeed 	13.999912373521
scalar RSUExampleScenario.node[47].veinsmobility 	totalDistance 	3410.0396153691
scalar RSUExampleScenario.node[47].veinsmobility 	totalCO2Emission 	696.9864724661
scalar RSUExampleScenario.node[48].veinsmobility 	startTime 	144.1
scalar RSUExampleScenario.node[48].veinsmobility 	totalTime 	275.1
scalar RSUExampleScenario.node[48].veinsmobility 	stopTime 	419.3
scalar RSUExampleScenario.node[48].veinsmobility 	minSpeed 	0.25834311605711
scalar RSUExampleScenario.node[48].veinsmobility 	maxSpeed 	13.999938221925
scalar RSUExampleScenario.node[48].veinsmobility 	totalDistance 	3413.7918701534
scalar RSUExampleScenario.node[48].veinsmobility 	totalCO2Emission 	695.50970832183
scalar RSUExampleScenario.node[49].veinsmobility 	startTime 	147.1
scalar RSUExampleScenario.node[49].veinsmobility 	totalTime 	275.8
scalar RSUExampleScenario.node[49].veinsmobility 	stopTime 	423
scalar RSUExampleScenario.node[49].veinsmobility 	minSpeed 	0.25977936325828
scalar RSUExampleScenario.node[49].veinsmobility 	maxSpeed 	13.999975264943
scalar RSUExampleScenario.node[49].veinsmobility 	totalDistance 	3409.8273949094
scalar RSUExampleScenario.node[49].veinsmobility 	totalCO2Emission 	699.39651903744
scalar RSUExampleScenario.node[50].veinsmobility 	startTime 	150.1
scalar RSUExampleScenario.node[50].veinsmobility 	totalTime 	276.4
scalar RSUExampleScenario.node[50].veinsmobility 	stopTime 	426.6
scalar RSUExampleScenario.node[50].veinsmobility 	minSpeed 	0.25285925605777
scalar RSUExampleScenario.node[50].veinsmobility 	maxSpeed 	13.999993945162
scalar RSUExampleScenario.node[50].veinsmobility 	totalDistance 	3413.698948376
scalar RSUExampleScenario.node[50].veinsmobility 	totalCO2Emission 	696.20319624084
scalar RSUExampleScenario.node[51].veinsmobility 	startTime 	153.1
scalar RSUExampleScenario.node[51].veinsmobility 	totalTime 	277.2
scalar RSUExampleScenario.node[51].veinsmobility 	stopTime 	430.4
scalar RSUExampleScenario.node[51].veinsmobility 	minSpeed 	0.25804203426698
scalar RSUExampleScenario.node[51].veinsmobility 	maxSpeed 	13.999789830532
scalar RSUExampleScenario.node[51].veinsmobility 	totalDistance 	3409.5345863227
scalar RSUExampleScenario.node[51].veinsmobility 	totalCO2Emission 	700.17971257188
scalar RSUExampleScenario.node[52].veinsmobility 	startTime 	156.1
scalar RSUExampleScenario.node[52].veinsmobility 	totalTime 	278
scalar RSUExampleScenario.node[52].veinsmobility 	stopTime 	434.2
scalar RSUExampleScenario.node[52].veinsmobility 	minSpeed 	0.25966735525592
scalar RSUExampleScenario.node[52].veinsmobility 	maxSpeed 	13.999986184905
scalar RSUExampleScenario.node[52].veinsmobility 	totalDistance 	3414.1102629545
scalar RSUExampleScenario.node[52].veinsmobility 	totalCO2Emission 	703.53375025706
scalar RSUExampleScenario.node[53].veinsmobility 	startTime 	159.1
scalar RSUExampleScenario.node[53].veinsmobility 	totalTime 	278.8
scalar RSUExampleScenario.node[53].veinsmobility 	stopTime 	438
scalar RSUExampleScenario.node[53].veinsmobility 	minSpeed 	0.25901620697579
scalar RSUExampleScenario.node[53].veinsmobility 	maxSpeed 	13.999926478916
scalar RSUExampleScenario.node[53].veinsmobility 	totalDistance 	3410.2093447704
scalar RSUExampleScenario.node[53].veinsmobility 	totalCO2Emission 	700.98339851407
scalar RSUExampleScenario.node[54].veinsmobility 	startTime 	162.1
scalar RSUExampleScenario.node[54].veinsmobility 	totalTime 	279.5
scalar RSUExampleScenario.node[54].veinsmobility 	stopTime 	441.7
scalar RSUExampleScenario.node[54].veinsmobility 	minSpeed 	0.24785192249296
scalar RSUExampleScenario.node[54].veinsmobility 	maxSpeed 	13.99983982065
scalar RSUExampleScenario.node[54].veinsmobility 	totalDistance 	3413.6003075055
scalar RSUExampleScenario.node[54].veinsmobility 	totalCO2Emission 	702.6796936004
scalar RSUExampleScenario.node[55].veinsmobility 	startTime 	165.1
scalar RSUExampleScenario.node[55].veinsmobility 	totalTime 	280.2
scalar RSUExampleScenario.node[55].veinsmobility 	stopTime 	445.4
scalar RSUExampleScenario.node[55].veinsmobility 	minSpeed 	0.25525487156096
scalar RSUExampleScenario.node[55].veinsmobility 	maxSpeed 	13.999972034683
scalar RSUExampleScenario.node[55].veinsmobility 	totalDistance 	3410.2037658174
scalar RSUExampleScenario.node[55].veinsmobility 	totalCO2Emission 	704.36561678699
scalar RSUExampleScenario.node[56].veinsmobility 	startTime 	168.1
scalar RSUExampleScenario.node[56].veinsmobility 	totalTime 	280.9
scalar RSUExampleScenario.node[56].veinsmobility 	stopTime 	449.1
scalar RSUExampleScenario.node[56].veinsmobility 	minSpeed 	0.24816937503079
scalar RSUExampleScenario.node[56].veinsmobility 	maxSpeed 	13.999968393324
scalar RSUExampleScenario.node[56].veinsmobility 	totalDistance 	3413.6195543232
scalar RSUExampleScenario.node[56].veinsmobility 	totalCO2Emission 	700.40044288117
scalar RSUExampleScenario.node[57].veinsmobility 	startTime 	171.1
scalar RSUExampleScenario.node[57].veinsmobility 	totalTime 	281.6
scalar RSUExampleScenario.node[57].veinsmobility 	stopTime 	452.8
scalar RSUExampleScenario.node[57].veinsmobility 	minSpeed 	0.25662257928913
scalar RSUExampleScenario.node[57].veinsmobility 	maxSpeed 	13.999921623024
scalar RSUExampleScenario.node[57].veinsmobility 	totalDistance 	3409.9822435406
scalar RSUExampleScenario.node[57].veinsmobility 	totalCO2Emission 	705.52698995524
scalar RSUExampleScenario.node[58].veinsmobility 	startTime 	174.1
scalar RSUExampleScenario.node[58].veinsmobility 	totalTime 	282.4
scalar RSUExampleScenario.node[58].veinsmobility 	stopTime 	456.6
scalar RSUExampleScenario.node[58].veinsmobility 	minSpeed 	0.24725011536968
scalar RSUExampleScenario.node[58].veinsmobility 	maxSpeed 	13.99995177042
scalar RSUExampleScenario.node[58].veinsmobility 	totalDistance 	3414.2672532988
scalar RSUExampleScenario.node[58].veinsmobility 	totalCO2Emission 	701.67249318745
scalar RSUExampleScenario.node[59].veinsmobility 	startTime 	177.1
scalar RSUExampleScenario.node[59].veinsmobility 	totalTime 	283.2
scalar RSUExampleScenario.node[59].veinsmobility 	stopTime 	460.4
scalar RSUExampleScenario.node[59].veinsmobility 	minSpeed 	0.24772264217166
scalar RSUExampleScenario.node[59].veinsmobility 	maxSpeed 	13.999977378557
scalar RSUExampleScenario.node[59].veinsmobility 	totalDistance 	3410.0329691589
scalar RSUExampleScenario.node[59].veinsmobility 	totalCO2Emission 	702.27653494652
scalar RSUExampleScenario.node[60].veinsmobility 	startTime 	180.1
scalar RSUExampleScenario.node[60].veinsmobility 	totalTime 	284
scalar RSUExampleScenario.node[60].veinsmobility 	stopTime 	464.2
scalar RSUExampleScenario.node[60].veinsmobility 	minSpeed 	0.25180137944664
scalar RSUExampleScenario.node[60].veinsmobility 	maxSpeed 	13.999981757638
scalar RSUExampleScenario.node[60].veinsmobility 	totalDistance 	3413.5314855599
scalar RSUExampleScenario.node[60].veinsmobility 	totalCO2Emission 	705.26287815604
scalar RSUExampleScenario.node[61].veinsmobility 	startTime 	183.1
scalar RSUExampleScenario.node[61].veinsmobility 	totalTime 	284.7
scalar RSUExampleScenario.node[61].veinsmobility 	stopTime 	467.9
scalar RSUExampleScenario.node[61].veinsmobility 	minSpeed 	0.24857514497451
scalar RSUExampleScenario.node[61].veinsmobility 	maxSpeed 	13.999886581718
scalar RSUExampleScenario.node[61].veinsmobility 	totalDistance 	3409.5002548213
scalar RSUExampleScenario.node[61].veinsmobility 	totalCO2Emission 	704.22306319589
scalar RSUExampleScenario.node[62].veinsmobility 	startTime 	186.1
scalar RSUExampleScenario.node[62].veinsmobility 	totalTime 	285.5
scalar RSUExampleScenario.node[62].veinsmobility 	stopTime 	471.7
scalar RSUExampleScenario.node[62].veinsmobility 	minSpeed 	0.25357661628164
scalar RSUExampleScenario.node[62].veinsmobility 	maxSpeed 	13.999874504127
scalar RSUExampleScenario.node[62].veinsmobility 	totalDistance 	3414.2248729075
scalar RSUExampleScenario.node[62].veinsmobility 	totalCO2Emission 	705.79057458722
scalar RSUExampleScenario.node[63].veinsmobility 	startTime 	189.1
scalar RSUExampleScenario.node[63].veinsmobility 	totalTime 	286.2
scalar RSUExampleScenario.node[63].veinsmobility 	stopTime 	475.4
scalar RSUExampleScenario.node[63].veinsmobility 	minSpeed 	0.25012064431747
scalar RSUExampleScenario.node[63].veinsmobility 	maxSpeed 	13.999953739715
scalar RSUExampleScenario.node[63].veinsmobility 	totalDistance 	3409.8470601438
scalar RSUExampleScenario.node[63].veinsmobility 	totalCO2Emission 	704.44645347486
scalar RSUExampleScenario.node[64].veinsmobility 	startTime 	192.1
scalar RSUExampleScenario.node[64].veinsmobility 	totalTime 	286.9
scalar RSUExampleScenario.node[64].veinsmobility 	stopTime 	479.1
scalar RSUExampleScenario.node[64].veinsmobility 	minSpeed 	0.25490095267096
scalar RSUExampleScenario.node[64].veinsmobility 	maxSpeed 	13.999765243547
scalar RSUExampleScenario.node[64].veinsmobility 	totalDistance 	3414.010259696
scalar RSUExampleScenario.node[64].veinsmobility 	totalCO2Emission 	709.14675558595
scalar RSUExampleScenario.node[65].veinsmobility 	startTime 	195.1
scalar RSUExampleScenario.node[65].veinsmobility 	totalTime 	287.7
scalar RSUExampleScenario.node[65].veinsmobility 	stopTime 	482.9
scalar RSUExampleScenario.node[65].veinsmobility 	minSpeed 	0.25493271450372
scalar RSUExampleScenario.node[65].veinsmobility 	maxSpeed 	13.999959935057
scalar RSUExampleScenario.node[65].veinsmobility 	totalDistance 	3409.8824530116
scalar RSUExampleScenario.node[65].veinsmobility 	totalCO2Emission 	709.17826648526
scalar RSUExampleScenario.node[66].veinsmobility 	startTime 	198.1
scalar RSUExampleScenario.node[66].veinsmobility 	totalTime 	288.5
scalar RSUExampleScenario.node[66].veinsmobility 	stopTime 	486.7
scalar RSUExampleScenario.node[66].veinsmobility 	minSpeed 	0.25256077367603
scalar RSUExampleScenario.node[66].veinsmobility 	maxSpeed 	13.999946876238
scalar RSUExampleScenario.node[66].veinsmobility 	totalDistance 	3413.8443835894
scalar RSUExampleScenario.node[66].veinsmobility 	totalCO2Emission 	710.13651543645
scalar RSUExampleScenario.node[67].veinsmobility 	startTime 	201.1
scalar RSUExampleScenario.node[67].veinsmobility 	totalTime 	289.2
scalar RSUExampleScenario.node[67].veinsmobility 	stopTime 	490.4
scalar RSUExampleScenario.node[67].veinsmobility 	minSpeed 	0.25924418736901
scalar RSUExampleScenario.node[67].veinsmobility 	maxSpeed 	13.999866790907
scalar RSUExampleScenario.node[67].veinsmobility 	totalDistance 	3409.751145825
scalar RSUExampleScenario.node[67].veinsmobility 	totalCO2Emission 	716.72085132949
scalar RSUExampleScenario.node[68].veinsmobility 	startTime 	204.1
scalar RSUExampleScenario.node[68].veinsmobility 	totalTime 	289.9
scalar RSUExampleScenario.node[68].veinsmobility 	stopTime 	494.1
scalar RSUExampleScenario.node[68].veinsmobility 	minSpeed 	0.24880652017333
scalar RSUExampleScenario.node[68].veinsmobility 	maxSpeed 	13.999977101241
scalar RSUExampleScenario.node[68].veinsmobility 	totalDistance 	3413.7275316894
scalar RSUExampleScenario.node[68].veinsmobility 	totalCO2Emission 	711.44751684362
scalar RSUExampleScenario.node[69].veinsmobility 	startTime 	207.1
scalar RSUExampleScenario.node[69].veinsmobility 	totalTime 	290.6
scalar RSUExampleScenario.node[69].veinsmobility 	stopTime 	497.8
scalar RSUExampleScenario.node[69].veinsmobility 	minSpeed 	0.24841870521265
scalar RSUExampleScenario.node[69].veinsmobility 	maxSpeed 	13.999918383411
scalar RSUExampleScenario.node[69].veinsmobility 	totalDistance 	3409.6698434547
scalar RSUExampleScenario.node[69].veinsmobility 	totalCO2Emission 	711.78788181008
scalar RSUExampleScenario.node[70].veinsmobility 	startTime 	210.1
scalar RSUExampleScenario.node[70].veinsmobility 	totalTime 	291.3
scalar RSUExampleScenario.node[70].veinsmobility 	stopTime 	501.5
scalar RSUExampleScenario.node[70].veinsmobility 	minSpeed 	0.24903041066276
scalar RSUExampleScenario.node[70].veinsmobility 	maxSpeed 	13.999855830083
scalar RSUExampleScenario.node[70].veinsmobility 	totalDistance 	3413.7727534689
scalar RSUExampleScenario.node[70].veinsmobility 	totalCO2Emission 	709.81100628571
scalar RSUExampleScenario.node[71].veinsmobility 	startTime 	213.1
scalar RSUExampleScenario.node[71].veinsmobility 	totalTime 	292
scalar RSUExampleScenario.node[71].veinsmobility 	stopTime 	505.2
scalar RSUExampleScenario.node[71].veinsmobility 	minSpeed 	0.25756010872941
scalar RSUExampleScenario.node[71].veinsmobility 	maxSpeed 	13.999930546267
scalar RSUExampleScenario.node[71].veinsmobility 	totalDistance 	3410.0731202611
scalar RSUExampleScenario.node[71].veinsmobility 	totalCO2Emission 	712.60301068119
scalar RSUExampleScenario.node[72].veinsmobility 	startTime 	216.1
scalar RSUExampleScenario.node[72].veinsmobility 	totalTime 	292.7
scalar RSUExampleScenario.node[72].veinsmobility 	stopTime 	508.9
scalar RSUExampleScenario.node[72].veinsmobility 	minSpeed 	0.25431881174934
scalar RSUExampleScenario.node[72].veinsmobility 	maxSpeed 	13.999938077759
scalar RSUExampleScenario.node[72].veinsmobility 	totalDistance 	3413.9804476201
scalar RSUExampleScenario.node[72].veinsmobility 	totalCO2Emission 	713.18286811158
scalar RSUExampleScenario.node[73].veinsmobility 	startTime 	219.1
scalar RSUExampleScenario.node[73].veinsmobility 	totalTime 	293.4
scalar RSUExampleScenario.node[73].veinsmobility 	stopTime 	512.6
scalar RSUExampleScenario.node[73].veinsmobility 	minSpeed 	0.25299738796637
scalar RSUExampleScenario.node[73].veinsmobility 	maxSpeed 	13.999983127809
scalar RSUExampleScenario.node[73].veinsmobility 	totalDistance 	3409.5231967942
scalar RSUExampleScenario.node[73].veinsmobility 	totalCO2Emission 	712.40525730201
scalar RSUExampleScenario.node[74].veinsmobility 	startTime 	222.1
scalar RSUExampleScenario.node[74].veinsmobility 	totalTime 	294.1
scalar RSUExampleScenario.node[74].veinsmobility 	stopTime 	516.3
scalar RSUExampleScenario.node[74].veinsmobility 	minSpeed 	0.24867262588535
scalar RSUExampleScenario.node[74].veinsmobility 	maxSpeed 	13.999979960355
scalar RSUExampleScenario.node[74].veinsmobility 	totalDistance 	3413.9677306333
scalar RSUExampleScenario.node[74].veinsmobility 	totalCO2Emission 	714.67939814505
scalar RSUExampleScenario.node[75].veinsmobility 	startTime 	225.1
scalar RSUExampleScenario.node[75].veinsmobility 	totalTime 	294.8
scalar RSUExampleScenario.node[75].veinsmobility 	stopTime 	520
scalar RSUExampleScenario.node[75].veinsmobility 	minSpeed 	0.2471674808776
scalar RSUExampleScenario.node[75].veinsmobility 	maxSpeed 	13.999880884285
scalar RSUExampleScenario.node[75].veinsmobility 	totalDistance 	3409.7083523332
scalar RSUExampleScenario.node[75].veinsmobility 	totalCO2Emission 	719.51011807784
scalar RSUExampleScenario.node[76].veinsmobility 	startTime 	228.1
scalar RSUExampleScenario.node[76].veinsmobility 	totalTime 	295.5
scalar RSUExampleScenario.node[76].veinsmobility 	stopTime 	523.7
scalar RSUExampleScenario.node[76].veinsmobility 	minSpeed 	0.2519523532677
scalar RSUExampleScenario.node[76].veinsmobility 	maxSpeed 	13.999837564474
scalar RSUExampleScenario.node[76].veinsmobility 	totalDistance 	3413.7980590631
scalar RSUExampleScenario.node[76].veinsmobility 	totalCO2Emission 	716.71443386831
scalar RSUExampleScenario.node[77].veinsmobility 	startTime 	231.1
scalar RSUExampleScenario.node[77].veinsmobility 	totalTime 	296.2
scalar RSUExampleScenario.node[77].veinsmobility 	stopTime 	527.4
scalar RSUExampleScenario.node[77].veinsmobility 	minSpeed 	0.25791183814243
scalar RSUExampleScenario.node[77].veinsmobility 	maxSpeed 	13.999722059851
scalar RSUExampleScenario.node[77].veinsmobility 	totalDistance 	3409.7255511161
scalar RSUExampleScenario.node[77].veinsmobility 	totalCO2Emission 	716.24712476524
scalar RSUExampleScenario.node[78].veinsmobility 	startTime 	234.1
scalar RSUExampleScenario.node[78].veinsmobility 	totalTime 	296.9
scalar RSUExampleScenario.node[78].veinsmobility 	stopTime 	531.1
scalar RSUExampleScenario.node[78].veinsmobility 	minSpeed 	0.24918254066631
scalar RSUExampleScenario.node[78].veinsmobility 	maxSpeed 	13.999919986464
scalar RSUExampleScenario.node[78].veinsmobility 	totalDistance 	3410.0493352396
scalar RSUExampleScenario.node[78].veinsmobility 	totalCO2Emission 	719.04912611417
scalar RSUExampleScenario.node[79].veinsmobility 	startTime 	237.1
scalar RSUExampleScenario.node[79].veinsmobility 	totalTime 	297.6
scalar RSUExampleScenario.node[79].veinsmobility 	stopTime 	534.8
scalar RSUExampleScenario.node[79].veinsmobility 	minSpeed 	0.25884438210982
scalar RSUExampleScenario.node[79].veinsmobility 	maxSpeed 	13.999834405193
scalar RSUExampleScenario.node[79].veinsmobility 	totalDistance 	3413.8858157076
scalar RSUExampleScenario.node[79].veinsmobility 	totalCO2Emission 	720.35874202038
scalar RSUExampleScenario.node[80].veinsmobility 	startTime 	240.1
scalar RSUExampleScenario.node[80].veinsmobility 	totalTime 	298.3
scalar RSUExampleScenario.node[80].veinsmobility 	stopTime 	538.5
scalar RSUExampleScenario.node[80].veinsmobility 	minSpeed 	0.2505549120733
scalar RSUExampleScenario.node[80].veinsmobility 	maxSpeed 	13.999922982964
scalar RSUExampleScenario.node[80].veinsmobility 	totalDistance 	3409.7537386339
scalar RSUExampleScenario.node[80].veinsmobility 	totalCO2Emission 	718.63326112183
scalar RSUExampleScenario.node[81].veinsmobility 	startTime 	243.1
scalar RSUExampleScenario.node[81].veinsmobility 	totalTime 	299
scalar RSUExampleScenario.node[81].veinsmobility 	stopTime 	542.2
scalar RSUExampleScenario.node[81].veinsmobility 	minSpeed 	0.24775561796851
scalar RSUExampleScenario.node[81].veinsmobility 	maxSpeed 	13.999872765867
scalar RSUExampleScenario.node[81].veinsmobility 	totalDistance 	3413.9509298327
scalar RSUExampleScenario.node[81].veinsmobility 	totalCO2Emission 	720.45250343812
scalar RSUExampleScenario.node[82].veinsmobility 	startTime 	246.1
scalar RSUExampleScenario.node[82].veinsmobility 	totalTime 	299.7
scalar RSUExampleScenario.node[82].veinsmobility 	stopTime 	545.9
scalar RSUExampleScenario.node[82].veinsmobility 	minSpeed 	0.24902666515112
scalar RSUExampleScenario.node[82].veinsmobility 	maxSpeed 	13.999947313308
scalar RSUExampleScenario.node[82].veinsmobility 	totalDistance 	3409.6730268513
scalar RSUExampleScenario.node[82].veinsmobility 	totalCO2Emission 	724.42740474042
scalar RSUExampleScenario.node[83].veinsmobility 	startTime 	249.1
scalar RSUExampleScenario.node[83].veinsmobility 	totalTime 	300.4
scalar RSUExampleScenario.node[83].veinsmobility 	stopTime 	549.6
scalar RSUExampleScenario.node[83].veinsmobility 	minSpeed 	0.24776404087641
scalar RSUExampleScenario.node[83].veinsmobility 	maxSpeed 	13.999998354875
scalar RSUExampleScenario.node[83].veinsmobility 	totalDistance 	3413.7656573397
scalar RSUExampleScenario.node[83].veinsmobility 	totalCO2Emission 	719.40147804806
scalar RSUExampleScenario.node[84].veinsmobility 	startTime 	252.1
scalar RSUExampleScenario.node[84].veinsmobility 	totalTime 	301.1
scalar RSUExampleScenario.node[84].veinsmobility 	stopTime 	553.3
scalar RSUExampleScenario.node[84].veinsmobility 	minSpeed 	0.257219896266
scalar RSUExampleScenario.node[84].veinsmobility 	maxSpeed 	13.999672796559
scalar RSUExampleScenario.node[84].veinsmobility 	totalDistance 	3409.7375747516
scalar RSUExampleScenario.node[84].veinsmobility 	totalCO2Emission 	725.1727376962
scalar RSUExampleScenario.node[85].veinsmobility 	startTime 	255.1
scalar RSUExampleScenario.node[85].veinsmobility 	totalTime 	301.8
scalar RSUExampleScenario.node[85].veinsmobility 	stopTime 	557
scalar RSUExampleScenario.node[85].veinsmobility 	minSpeed 	0.25392803853215
scalar RSUExampleScenario.node[85].veinsmobility 	maxSpeed 	13.999856642263
scalar RSUExampleScenario.node[85].veinsmobility 	totalDistance 	3409.4615149923
scalar RSUExampleScenario.node[85].veinsmobility 	totalCO2Emission 	726.28621101609
scalar RSUExampleScenario.node[86].veinsmobility 	startTime 	258.1
scalar RSUExampleScenario.node[86].veinsmobility 	totalTime 	302.5
scalar RSUExampleScenario.node[86].veinsmobility 	stopTime 	560.7
scalar RSUExampleScenario.node[86].veinsmobility 	minSpeed 	0.25115997441835
scalar RSUExampleScenario.node[86].veinsmobility 	maxSpeed 	13.999992676903
scalar RSUExampleScenario.node[86].veinsmobility 	totalDistance 	3414.0959403712
scalar RSUExampleScenario.node[86].veinsmobility 	totalCO2Emission 	723.11449758274
scalar RSUExampleScenario.node[87].veinsmobility 	startTime 	261.1
scalar RSUExampleScenario.node[87].veinsmobility 	totalTime 	303.2
scalar RSUExampleScenario.node[87].veinsmobility 	stopTime 	564.4
scalar RSUExampleScenario.node[87].veinsmobility 	minSpeed 	0.25431392053701
scalar RSUExampleScenario.node[87].veinsmobility 	maxSpeed 	13.999882966571
scalar RSUExampleScenario.node[87].veinsmobility 	totalDistance 	3409.4687458563
scalar RSUExampleScenario.node[87].veinsmobility 	totalCO2Emission 	722.80391118195
scalar RSUExampleScenario.node[88].veinsmobility 	startTime 	264.1
scalar RSUExampleScenario.node[88].veinsmobility 	totalTime 	303.9
scalar RSUExampleScenario.node[88].veinsmobility 	stopTime 	568.1
scalar RSUExampleScenario.node[88].veinsmobility 	minSpeed 	0.24854717496946
scalar RSUExampleScenario.node[88].veinsmobility 	maxSpeed 	13.999970625951
scalar RSUExampleScenario.node[88].veinsmobility 	totalDistance 	3413.5697105704
scalar RSUExampleScenario.node[88].veinsmobility 	totalCO2Emission 	728.44014044437
scalar RSUExampleScenario.node[89].veinsmobility 	startTime 	267.1
scalar RSUExampleScenario.node[89].veinsmobility 	totalTime 	304.5
scalar RSUExampleScenario.node[89].veinsmobility 	stopTime 	571.7
scalar RSUExampleScenario.node[89].veinsmobility 	minSpeed 	0.25558904239559
scalar RSUExampleScenario.node[89].veinsmobility 	maxSpeed 	13.999841007821
scalar RSUExampleScenario.node[89].veinsmobility 	totalDistance 	3409.7056884204
scalar RSUExampleScenario.node[89].veinsmobility 	totalCO2Emission 	727.12519586939
scalar RSUExampleScenario.node[90].veinsmobility 	startTime 	270.1
scalar RSUExampleScenario.node[90].veinsmobility 	totalTime 	305.3
scalar RSUExampleScenario.node[90].veinsmobility 	stopTime 	575.5
scalar RSUExampleScenario.node[90].veinsmobility 	minSpeed 	0.25001972661633
scalar RSUExampleScenario.node[90].veinsmobility 	maxSpeed 	13.999979927302
scalar RSUExampleScenario.node[90].veinsmobility 	totalDistance 	3414.3374845598
scalar RSUExampleScenario.node[90].veinsmobility 	totalCO2Emission 	728.2658890038
scalar RSUExampleScenario.node[91].veinsmobility 	startTime 	273.1
scalar RSUExampleScenario.node[91].veinsmobility 	totalTime 	305.9
scalar RSUExampleScenario.node[91].veinsmobility 	stopTime 	579.1
scalar RSUExampleScenario.node[91].veinsmobility 	minSpeed 	0.25519946988509
scalar RSUExampleScenario.node[91].veinsmobility 	maxSpeed 	13.999842033149
scalar RSUExampleScenario.node[91].veinsmobility 	totalDistance 	3409.5351968234
scalar RSUExampleScenario.node[91].veinsmobility 	totalCO2Emission 	726.65569686835
scalar RSUExampleScenario.node[92].veinsmobility 	startTime 	276.1
scalar RSUExampleScenario.node[92].veinsmobility 	totalTime 	306.6
scalar RSUExampleScenario.node[92].veinsmobility 	stopTime 	582.8
scalar RSUExampleScenario.node[92].veinsmobility 	minSpeed 	0.24851847449504
scalar RSUExampleScenario.node[92].veinsmobility 	maxSpeed 	13.999978320708
scalar RSUExampleScenario.node[92].veinsmobility 	totalDistance 	3413.9102428806
scalar RSUExampleScenario.node[92].veinsmobility 	totalCO2Emission 	731.19296665484
scalar RSUExampleScenario.node[93].veinsmobility 	startTime 	279.1
scalar RSUExampleScenario.node[93].veinsmobility 	totalTime 	307.3
scalar RSUExampleScenario.node[93].veinsmobility 	stopTime 	586.5
scalar RSUExampleScenario.node[93].veinsmobility 	minSpeed 	0.2588447981705
scalar RSUExampleScenario.node[93].veinsmobility 	maxSpeed 	13.999913317882
scalar RSUExampleScenario.node[93].veinsmobility 	totalDistance 	3410.0798148689
scalar RSUExampleScenario.node[93].veinsmobility 	totalCO2Emission 	730.27358902877
scalar RSUExampleScenario.node[94].veinsmobility 	startTime 	282.1
scalar RSUExampleScenario.node[94].veinsmobility 	totalTime 	308
scalar RSUExampleScenario.node[94].veinsmobility 	stopTime 	590.2
scalar RSUExampleScenario.node[94].veinsmobility 	minSpeed 	0.24760031498433
scalar RSUExampleScenario.node[94].veinsmobility 	maxSpeed 	13.99997773248
scalar RSUExampleScenario.node[94].veinsmobility 	totalDistance 	3413.9010697978
scalar RSUExampleScenario.node[94].veinsmobility 	totalCO2Emission 	734.69767325077
scalar RSUExampleScenario.node[95].veinsmobility 	startTime 	285.1
scalar RSUExampleScenario.node[95].veinsmobility 	totalTime 	308.7
scalar RSUExampleScenario.node[95].veinsmobility 	stopTime 	593.9
scalar RSUExampleScenario.node[95].veinsmobility 	minSpeed 	0.25981927529047
scalar RSUExampleScenario.node[95].veinsmobility 	maxSpeed 	13.999944892384
scalar RSUExampleScenario.node[95].veinsmobility 	totalDistance 	3409.6794156914
scalar RSUExampleScenario.node[95].veinsmobility 	totalCO2Emission 	729.18409599845
scalar RSUExampleScenario.node[96].veinsmobility 	startTime 	288.1
scalar RSUExampleScenario.node[96].veinsmobility 	totalTime 	309.4
scalar RSUExampleScenario.node[96].veinsmobility 	stopTime 	597.6
scalar RSUExampleScenario.node[96].veinsmobility 	minSpeed 	0.25458100872696
scalar RSUExampleScenario.node[96].veinsmobility 	maxSpeed 	13.999959325793
scalar RSUExampleScenario.node[96].veinsmobility 	totalDistance 	3414.2323692398
scalar RSUExampleScenario.node[96].veinsmobility 	totalCO2Emission 	732.09797801273
scalar RSUExampleScenario.node[97].veinsmobility 	startTime 	291.1
scalar RSUExampleScenario.node[97].veinsmobility 	totalTime 	310.1
scalar RSUExampleScenario.node[97].veinsmobility 	stopTime 	601.3
scalar RSUExampleScenario.node[97].veinsmobility 	minSpeed 	0.256072604293
scalar RSUExampleScenario.node[97].veinsmobility 	maxSpeed 	13.999870054401
scalar RSUExampleScenario.node[97].veinsmobility 	totalDistance 	3409.9801497551
scalar RSUExampleScenario.node[97].veinsmobility 	totalCO2Emission 	732.28143738416
scalar RSUExampleScenario.node[98].veinsmobility 	startTime 	294.1
scalar RSUExampleScenario.node[98].veinsmobility 	totalTime 	310.8
scalar RSUExampleScenario.node[98].veinsmobility 	stopTime 	605
scalar RSUExampleScenario.node[98].veinsmobility 	minSpeed 	0.25225756348064
scalar RSUExampleScenario.node[98].veinsmobility 	maxSpeed 	13.999782782027
scalar RSUExampleScenario.node[98].veinsmobility 	totalDistance 	3413.9563530141
scalar RSUExampleScenario.node[98].veinsmobility 	totalCO2Emission 	733.84639118735
scalar RSUExampleScenario.node[99].veinsmobility 	startTime 	297.1
scalar RSUExampleScenario.node[99].veinsmobility 	totalTime 	311.5
scalar RSUExampleScenario.node[99].veinsmobility 	stopTime 	608.7
scalar RSUExampleScenario.node[99].veinsmobility 	minSpeed 	0.24854852177668
scalar RSUExampleScenario.node[99].veinsmobility 	maxSpeed 	13.999998530974
scalar RSUExampleScenario.node[99].veinsmobility 	totalDistance 	3409.9886120005
scalar RSUExampleScenario.node[99].veinsmobility 	totalCO2Emission 	732.87019701388
scalar RSUExampleScenario.node[100].veinsmobility 	startTime 	300.1
scalar RSUExampleScenario.node[100].veinsmobility 	totalTime 	312.1
scalar RSUExampleScenario.node[100].veinsmobility 	stopTime 	612.3
scalar RSUExampleScenario.node[100].veinsmobility 	minSpeed 	0.25630915170303
scalar RSUExampleScenario.node[100].veinsmobility 	maxSpeed 	13.999958347864
scalar RSUExampleScenario.node[100].veinsmobility 	totalDistance 	3413.9289124877
scalar RSUExampleScenario.node[100].veinsmobility 	totalCO2Emission 	734.23695612396
scalar RSUExampleScenario.node[101].veinsmobility 	startTime 	303.1
scalar RSUExampleScenario.node[101].veinsmobility 	totalTime 	312.8
scalar RSUExampleScenario.node[101].veinsmobility 	stopTime 	616
scalar RSUExampleScenario.node[101].veinsmobility 	minSpeed 	0.25259103546385
scalar RSUExampleScenario.node[101].veinsmobility 	maxSpeed 	13.999978407698
scalar RSUExampleScenario.node[101].veinsmobility 	totalDistance 	3410.0384270909
scalar RSUExampleScenario.node[101].veinsmobility 	totalCO2Emission 	740.31348621137
scalar RSUExampleScenario.node[102].veinsmobility 	startTime 	306.1
scalar RSUExampleScenario.node[102].veinsmobility 	totalTime 	313.5
scalar RSUExampleScenario.node[102].veinsmobility 	stopTime 	619.7
scalar RSUExampleScenario.node[102].veinsmobility 	minSpeed 	0.25270317678154
scalar RSUExampleScenario.node[102].veinsmobility 	maxSpeed 	13.999894502789
scalar RSUExampleScenario.node[102].veinsmobility 	totalDistance 	3414.2762531165
scalar RSUExampleScenario.node[102].veinsmobility 	totalCO2Emission 	735.69118872369
scalar RSUExampleScenario.node[103].veinsmobility 	startTime 	309.1
scalar RSUExampleScenario.node[103].veinsmobility 	totalTime 	314.2
scalar RSUExampleScenario.node[103].veinsmobility 	stopTime 	623.4
scalar RSUExampleScenario.node[103].veinsmobility 	minSpeed 	0.25416777670523
scalar RSUExampleScenario.node[103].veinsmobility 	maxSpeed 	13.999909921573
scalar RSUExampleScenario.node[103].veinsmobility 	totalDistance 	3409.8109647943
scalar RSUExampleScenario.node[103].veinsmobility 	totalCO2Emission 	730.25042107291
scalar RSUExampleScenario.node[104].veinsmobility 	startTime 	312.1
scalar RSUExampleScenario.node[104].veinsmobility 	totalTime 	314.9
scalar RSUExampleScenario.node[104].veinsmobility 	stopTime 	627.1
scalar RSUExampleScenario.node[104].veinsmobility 	minSpeed 	0.2569924496396
scalar RSUExampleScenario.node[104].veinsmobility 	maxSpeed 	13.999994613056
scalar RSUExampleScenario.node[104].veinsmobility 	totalDistance 	3413.8996498956
scalar RSUExampleScenario.node[104].veinsmobility 	totalCO2Emission 	736.76417448856
scalar RSUExampleScenario.node[105].veinsmobility 	startTime 	315.1
scalar RSUExampleScenario.node[105].veinsmobility 	totalTime 	315.6
scalar RSUExampleScenario.node[105].veinsmobility 	stopTime 	630.8
scalar RSUExampleScenario.node[105].veinsmobility 	minSpeed 	0.25668960000854
scalar RSUExampleScenario.node[105].veinsmobility 	maxSpeed 	13.999975404963
scalar RSUExampleScenario.node[105].veinsmobility 	totalDistance 	3409.4855475464
scalar RSUExampleScenario.node[105].veinsmobility 	totalCO2Emission 	734.59104409918
scalar RSUExampleScenario.node[106].veinsmobility 	startTime 	318.1
scalar RSUExampleScenario.node[106].veinsmobility 	totalTime 	316.3
scalar RSUExampleScenario.node[106].veinsmobility 	stopTime 	634.5
scalar RSUExampleScenario.node[106].veinsmobility 	minSpeed 	0.25628063207376
scalar RSUExampleScenario.node[106].veinsmobility 	maxSpeed 	13.999997089945
scalar RSUExampleScenario.node[106].veinsmobility 	totalDistance 	3414.0580257804
scalar RSUExampleScenario.node[106].veinsmobility 	totalCO2Emission 	735.98153157008
scalar RSUExampleScenario.node[107].veinsmobility 	startTime 	321.1
scalar RSUExampleScenario.node[107].veinsmobility 	totalTime 	317
scalar RSUExampleScenario.node[107].veinsmobility 	stopTime 	638.2
scalar RSUExampleScenario.node[107].veinsmobility 	minSpeed 	0.24711109227478
scalar RSUExampleScenario.node[107].veinsmobility 	maxSpeed 	13.99992485516
scalar RSUExampleScenario.node[107].veinsmobility 	totalDistance 	3409.6774563951
scalar RSUExampleScenario.node[107].veinsmobility 	totalCO2Emission 	737.08262042051
scalar RSUExampleScenario.node[108].veinsmobility 	startTime 	324.1
scalar RSUExampleScenario.node[108].veinsmobility 	totalTime 	317.7
scalar RSUExampleScenario.node[108].veinsmobility 	stopTime 	641.9
scalar RSUExampleScenario.node[108].veinsmobility 	minSpeed 	0.25448132523312
scalar RSUExampleScenario.node[108].veinsmobility 	maxSpeed 	13.999958261934
scalar RSUExampleScenario.node[108].veinsmobility 	totalDistance 	3414.0747662355
scalar RSUExampleScenario.node[108].veinsmobility 	totalCO2Emission 	737.01360309339
scalar RSUExampleScenario.node[109].veinsmobility 	startTime 	327.1
scalar RSUExampleScenario.node[109].veinsmobility 	totalTime 	318.3
scalar RSUExampleScenario.node[109].veinsmobility 	stopTime 	645.5
scalar RSUExampleScenario.node[109].veinsmobility 	minSpeed 	0.25785227834783
scalar RSUExampleScenario.node[109].veinsmobility 	maxSpeed 	13.999976116715
scalar RSUExampleScenario.node[109].veinsmobility 	totalDistance 	3410.0357193393
scalar RSUExampleScenario.node[109].veinsmobility 	totalCO2Emission 	739.96336166354
scalar RSUExampleScenario.node[110].veinsmobility 	startTime 	330.1
scalar RSUExampleScenario.node[110].veinsmobility 	totalTime 	318.9
scalar RSUExampleScenario.node[110].veinsmobility 	stopTime 	649.1
scalar RSUExampleScenario.node[110].veinsmobility 	minSpeed 	0.25880463764421
scalar RSUExampleScenario.node[110].veinsmobility 	maxSpeed 	13.999963253699
scalar RSUExampleScenario.node[110].veinsmobility 	totalDistance 	3413.8061148447
scalar RSUExampleScenario.node[110].veinsmobility 	totalCO2Emission 	739.76710845901
scalar RSUExampleScenario.node[111].veinsmobility 	startTime 	333.1
scalar RSUExampleScenario.node[111].veinsmobility 	totalTime 	319.5
scalar RSUExampleScenario.node[111].veinsmobility 	stopTime 	652.7
scalar RSUExampleScenario.node[111].veinsmobility 	minSpeed 	0.2515720037811
scalar RSUExampleScenario.node[111].veinsmobility 	maxSpeed 	13.999957314213
scalar RSUExampleScenario.node[111].veinsmobility 	totalDistance 	3409.7260141129
scalar RSUExampleScenario.node[111].veinsmobility 	totalCO2Emission 	736.87142524329
scalar RSUExampleScenario.node[112].veinsmobility 	startTime 	336.1
scalar RSUExampleScenario.node[112].veinsmobility 	totalTime 	320.2
scalar RSUExampleScenario.node[112].veinsmobility 	stopTime 	656.4
scalar RSUExampleScenario.node[112].veinsmobility 	minSpeed 	0.25387078711018
scalar RSUExampleScenario.node[112].veinsmobility 	maxSpeed 	13.999939798585
scalar RSUExampleScenario.node[112].veinsmobility 	totalDistance 	3414.1480581228
scalar RSUExampleScenario.node[112].veinsmobility 	totalCO2Emission 	739.12591797175
scalar RSUExampleScenario.node[113].veinsmobility 	startTime 	339.1
scalar RSUExampleScenario.node[113].veinsmobility 	totalTime 	320.8
scalar RSUExampleScenario.node[113].veinsmobility 	stopTime 	660
scalar RSUExampleScenario.node[113].veinsmobility 	minSpeed 	0.25121326969378
scalar RSUExampleScenario.node[113].veinsmobility 	maxSpeed 	13.999958286965
scalar RSUExampleScenario.node[113].veinsmobility 	totalDistance 	3409.6536898512
scalar RSUExampleScenario.node[113].veinsmobility 	totalCO2Emission 	741.13510418727
scalar RSUExampleScenario.node[114].veinsmobility 	startTime 	342.1
scalar RSUExampleScenario.node[114].veinsmobility 	totalTime 	321.5
scalar RSUExampleScenario.node[114].veinsmobility 	stopTime 	663.7
scalar RSUExampleScenario.node[114].veinsmobility 	minSpeed 	0.2479331618913
scalar RSUExampleScenario.node[114].veinsmobility 	maxSpeed 	13.999844689376
scalar RSUExampleScenario.node[114].veinsmobility 	totalDistance 	3414.0620612526
scalar RSUExampleScenario.node[114].veinsmobility 	totalCO2Emission 	744.0934867896
scalar RSUExampleScenario.node[115].veinsmobility 	startTime 	345.1
scalar RSUExampleScenario.node[115].veinsmobility 	totalTime 	322.1
scalar RSUExampleScenario.node[115].veinsmobility 	stopTime 	667.3
scalar RSUExampleScenario.node[115].veinsmobility 	minSpeed 	0.25610416169884
scalar RSUExampleScenario.node[115].veinsmobility 	maxSpeed 	13.999827940769
scalar RSUExampleScenario.node[115].veinsmobility 	totalDistance 	3409.4202649322
scalar RSUExampleScenario.node[115].veinsmobility 	totalCO2Emission 	743.93495682363
scalar RSUExampleScenario.node[116].veinsmobility 	startTime 	348.1
scalar RSUExampleScenario.node[116].veinsmobility 	totalTime 	322.8
scalar RSUExampleScenario.node[116].veinsmobility 	stopTime 	671
scalar RSUExampleScenario.node[116].veinsmobility 	minSpeed 	0.25909263708512
scalar RSUExampleScenario.node[116].veinsmobility 	maxSpeed 	13.999918925602
scalar RSUExampleScenario.node[116].veinsmobility 	totalDistance 	3413.8140814058
scalar RSUExampleScenario.node[116].veinsmobility 	totalCO2Emission 	743.33926739664
scalar RSUExampleScenario.node[117].veinsmobility 	startTime 	351.1
scalar RSUExampleScenario.node[117].veinsmobility 	totalTime 	323.6
scalar RSUExampleScenario.node[117].veinsmobility 	stopTime 	674.8
scalar RSUExampleScenario.node[117].veinsmobility 	minSpeed 	0.25555595989805
scalar RSUExampleScenario.node[117].veinsmobility 	maxSpeed 	13.999985419973
scalar RSUExampleScenario.node[117].veinsmobility 	totalDistance 	3410.022039107
scalar RSUExampleScenario.node[117].veinsmobility 	totalCO2Emission 	747.10936619595
scalar RSUExampleScenario.node[118].veinsmobility 	startTime 	354.1
scalar RSUExampleScenario.node[118].veinsmobility 	totalTime 	324.3
scalar RSUExampleScenario.node[118].veinsmobility 	stopTime 	678.5
scalar RSUExampleScenario.node[118].veinsmobility 	minSpeed 	0.25201766672754
scalar RSUExampleScenario.node[118].veinsmobility 	maxSpeed 	13.999941420404
scalar RSUExampleScenario.node[118].veinsmobility 	totalDistance 	3413.7879104063
scalar RSUExampleScenario.node[118].veinsmobility 	totalCO2Emission 	747.98424799177
scalar RSUExampleScenario.node[119].veinsmobility 	startTime 	357.1
scalar RSUExampleScenario.node[119].veinsmobility 	totalTime 	325
scalar RSUExampleScenario.node[119].veinsmobility 	stopTime 	682.2
scalar RSUExampleScenario.node[119].veinsmobility 	minSpeed 	0.25475980238151
scalar RSUExampleScenario.node[119].veinsmobility 	maxSpeed 	13.999970457419
scalar RSUExampleScenario.node[119].veinsmobility 	totalDistance 	3409.8644737655
scalar RSUExampleScenario.node[119].veinsmobility 	totalCO2Emission 	744.43940635774
scalar RSUExampleScenario.node[120].veinsmobility 	startTime 	360.1
scalar RSUExampleScenario.node[120].veinsmobility 	totalTime 	325.7
scalar RSUExampleScenario.node[120].veinsmobility 	stopTime 	685.9
scalar RSUExampleScenario.node[120].veinsmobility 	minSpeed 	0.25539617033605
scalar RSUExampleScenario.node[120].veinsmobility 	maxSpeed 	13.999979040693
scalar RSUExampleScenario.node[120].veinsmobility 	totalDistance 	3413.9734430248
scalar RSUExampleScenario.node[120].veinsmobility 	totalCO2Emission 	747.28329000022
scalar RSUExampleScenario.node[121].veinsmobility 	startTime 	363.1
scalar RSUExampleScenario.node[121].veinsmobility 	totalTime 	326.3
scalar RSUExampleScenario.node[121].veinsmobility 	stopTime 	689.5
scalar RSUExampleScenario.node[121].veinsmobility 	minSpeed 	0.25216185349808
scalar RSUExampleScenario.node[121].veinsmobility 	maxSpeed 	13.999930702208
scalar RSUExampleScenario.node[121].veinsmobility 	totalDistance 	3409.6932261366
scalar RSUExampleScenario.node[121].veinsmobility 	totalCO2Emission 	750.00988623272
scalar RSUExampleScenario.node[122].veinsmobility 	startTime 	366.1
scalar RSUExampleScenario.node[122].veinsmobility 	totalTime 	326.9
scalar RSUExampleScenario.node[122].veinsmobility 	stopTime 	693.1
scalar RSUExampleScenario.node[122].veinsmobility 	minSpeed 	0.25910673084203
scalar RSUExampleScenario.node[122].veinsmobility 	maxSpeed 	13.999889650196
scalar RSUExampleScenario.node[122].veinsmobility 	totalDistance 	3409.4447968086
scalar RSUExampleScenario.node[122].veinsmobility 	totalCO2Emission 	752.02994996481
scalar RSUExampleScenario.node[123].veinsmobility 	startTime 	369.1
scalar RSUExampleScenario.node[123].veinsmobility 	totalTime 	327.6
scalar RSUExampleScenario.node[123].veinsmobility 	stopTime 	696.8
scalar RSUExampleScenario.node[123].veinsmobility 	minSpeed 	0.25281569019565
scalar RSUExampleScenario.node[123].veinsmobility 	maxSpeed 	13.999903549859
scalar RSUExampleScenario.node[123].veinsmobility 	totalDistance 	3413.936180576
scalar RSUExampleScenario.node[123].veinsmobility 	totalCO2Emission 	749.57920855782
scalar RSUExampleScenario.node[124].veinsmobility 	startTime 	372.1
scalar RSUExampleScenario.node[124].veinsmobility 	totalTime 	328.3
scalar RSUExampleScenario.node[124].veinsmobility 	stopTime 	700.5
scalar RSUExampleScenario.node[124].veinsmobility 	minSpeed 	0.2595620768161
scalar RSUExampleScenario.node[124].veinsmobility 	maxSpeed 	13.999972550117
scalar RSUExampleScenario.node[124].veinsmobility 	totalDistance 	3410.103655607
scalar RSUExampleScenario.node[124].veinsmobility 	totalCO2Emission 	748.54986363244
scalar RSUExampleScenario.node[125].veinsmobility 	startTime 	375.1
scalar RSUExampleScenario.node[125].veinsmobility 	totalTime 	329
scalar RSUExampleScenario.node[125].veinsmobility 	stopTime 	704.2
scalar RSUExampleScenario.node[125].veinsmobility 	minSpeed 	0.24751516912738
scalar RSUExampleScenario.node[125].veinsmobility 	maxSpeed 	13.999930021239
scalar RSUExampleScenario.node[125].veinsmobility 	totalDistance 	3414.2720467636
scalar RSUExampleScenario.node[125].veinsmobility 	totalCO2Emission 	750.20775004653
scalar RSUExampleScenario.node[126].veinsmobility 	startTime 	378.1
scalar RSUExampleScenario.node[126].veinsmobility 	totalTime 	329.7
scalar RSUExampleScenario.node[126].veinsmobility 	stopTime 	707.9
scalar RSUExampleScenario.node[126].veinsmobility 	minSpeed 	0.25219835087797
scalar RSUExampleScenario.node[126].veinsmobility 	maxSpeed 	13.999970002824
scalar RSUExampleScenario.node[126].veinsmobility 	totalDistance 	3409.6111141629
scalar RSUExampleScenario.node[126].veinsmobility 	totalCO2Emission 	752.66433739419
scalar RSUExampleScenario.node[127].veinsmobility 	startTime 	381.1
scalar RSUExampleScenario.node[127].veinsmobility 	totalTime 	330.5
scalar RSUExampleScenario.node[127].veinsmobility 	stopTime 	711.7
scalar RSUExampleScenario.node[127].veinsmobility 	minSpeed 	0.24885147174913
scalar RSUExampleScenario.node[127].veinsmobility 	maxSpeed 	13.999748004295
scalar RSUExampleScenario.node[127].veinsmobility 	totalDistance 	3414.1325011272
scalar RSUExampleScenario.node[127].veinsmobility 	totalCO2Emission 	753.10856349655
scalar RSUExampleScenario.node[128].veinsmobility 	startTime 	384.1
scalar RSUExampleScenario.node[128].veinsmobility 	totalTime 	331.1
scalar RSUExampleScenario.node[128].veinsmobility 	stopTime 	715.3
scalar RSUExampleScenario.node[128].veinsmobility 	minSpeed 	0.25730202444433
scalar RSUExampleScenario.node[128].veinsmobility 	maxSpeed 	13.99997114765
scalar RSUExampleScenario.node[128].veinsmobility 	totalDistance 	3409.5345117244
scalar RSUExampleScenario.node[128].veinsmobility 	totalCO2Emission 	754.0687013475
scalar RSUExampleScenario.node[129].veinsmobility 	startTime 	387.1
scalar RSUExampleScenario.node[129].veinsmobility 	totalTime 	331.8
scalar RSUExampleScenario.node[129].veinsmobility 	stopTime 	719
scalar RSUExampleScenario.node[129].veinsmobility 	minSpeed 	0.25045490401587
scalar RSUExampleScenario.node[129].veinsmobility 	maxSpeed 	13.999899851838
scalar RSUExampleScenario.node[129].veinsmobility 	totalDistance 	3409.7995787489
scalar RSUExampleScenario.node[129].veinsmobility 	totalCO2Emission 	755.71783318831
scalar RSUExampleScenario.node[130].veinsmobility 	startTime 	390.1
scalar RSUExampleScenario.node[130].veinsmobility 	totalTime 	332.5
scalar RSUExampleScenario.node[130].veinsmobility 	stopTime 	722.7
scalar RSUExampleScenario.node[130].veinsmobility 	minSpeed 	0.24946423391509
scalar RSUExampleScenario.node[130].veinsmobility 	maxSpeed 	13.999997841862
scalar RSUExampleScenario.node[130].veinsmobility 	totalDistance 	3414.3032348585
scalar RSUExampleScenario.node[130].veinsmobility 	totalCO2Emission 	752.93916830168
scalar RSUExampleScenario.node[131].veinsmobility 	startTime 	393.1
scalar RSUExampleScenario.node[131].veinsmobility 	totalTime 	333.1
scalar RSUExampleScenario.node[131].veinsmobility 	stopTime 	726.3
scalar RSUExampleScenario.node[131].veinsmobility 	minSpeed 	0.25124203209952
scalar RSUExampleScenario.node[131].veinsmobility 	maxSpeed 	13.999983665186
scalar RSUExampleScenario.node[131].veinsmobility 	totalDistance 	3409.4757786251
scalar RSUExampleScenario.node[131].veinsmobility 	totalCO2Emission 	755.00808721775
scalar RSUExampleScenario.node[132].veinsmobility 	startTime 	396.1
scalar RSUExampleScenario.node[132].veinsmobility 	totalTime 	333.8
scalar RSUExampleScenario.node[132].veinsmobility 	stopTime 	730
scalar RSUExampleScenario.node[132].veinsmobility 	minSpeed 	0.25821429415653
scalar RSUExampleScenario.node[132].veinsmobility 	maxSpeed 	13.999987832361
scalar RSUExampleScenario.node[132].veinsmobility 	totalDistance 	3414.1457060714
scalar RSUExampleScenario.node[132].veinsmobility 	totalCO2Emission 	754.21430526826
scalar RSUExampleScenario.node[133].veinsmobility 	startTime 	399.1
scalar RSUExampleScenario.node[133].veinsmobility 	totalTime 	334.4
scalar RSUExampleScenario.node[133].veinsmobility 	stopTime 	733.6
scalar RSUExampleScenario.node[133].veinsmobility 	minSpeed 	0.25678345573507
scalar RSUExampleScenario.node[133].veinsmobility 	maxSpeed 	13.999977622819
scalar RSUExampleScenario.node[133].veinsmobility 	totalDistance 	3409.955208058
scalar RSUExampleScenario.node[133].veinsmobility 	totalCO2Emission 	757.28930297531
scalar RSUExampleScenario.node[134].veinsmobility 	startTime 	402.1
scalar RSUExampleScenario.node[134].veinsmobility 	totalTime 	335
scalar RSUExampleScenario.node[134].veinsmobility 	stopTime 	737.2
scalar RSUExampleScenario.node[134].veinsmobility 	minSpeed 	0.25958702645171
scalar RSUExampleScenario.node[134].veinsmobility 	maxSpeed 	13.999907291587
scalar RSUExampleScenario.node[134].veinsmobility 	totalDistance 	3413.721447843
scalar RSUExampleScenario.node[134].veinsmobility 	totalCO2Emission 	759.11086789148
scalar RSUExampleScenario.node[135].veinsmobility 	startTime 	405.1
scalar RSUExampleScenario.node[135].veinsmobility 	totalTime 	335.7
scalar RSUExampleScenario.node[135].veinsmobility 	stopTime 	740.9
scalar RSUExampleScenario.node[135].veinsmobility 	minSpeed 	0.25037694030046
scalar RSUExampleScenario.node[135].veinsmobility 	maxSpeed 	13.99991108238
scalar RSUExampleScenario.node[135].veinsmobility 	totalDistance 	3409.6540262418
scalar RSUExampleScenario.node[135].veinsmobility 	totalCO2Emission 	758.90327345526
scalar RSUExampleScenario.node[136].veinsmobility 	startTime 	408.1
scalar RSUExampleScenario.node[136].veinsmobility 	totalTime 	336.4
scalar RSUExampleScenario.node[136].veinsmobility 	stopTime 	744.6
scalar RSUExampleScenario.node[136].veinsmobility 	minSpeed 	0.25712172404653
scalar RSUExampleScenario.node[136].veinsmobility 	maxSpeed 	13.999931667242
scalar RSUExampleScenario.node[136].veinsmobility 	totalDistance 	3413.8825314546
scalar RSUExampleScenario.node[136].veinsmobility 	totalCO2Emission 	761.5785001365
scalar RSUExampleScenario.node[137].veinsmobility 	startTime 	411.1
scalar RSUExampleScenario.node[137].veinsmobility 	totalTime 	337.1
scalar RSUExampleScenario.node[137].veinsmobility 	stopTime 	748.3
scalar RSUExampleScenario.node[137].veinsmobility 	minSpeed 	0.25404667266225
scalar RSUExampleScenario.node[137].veinsmobility 	maxSpeed 	13.999862019946
scalar RSUExampleScenario.node[137].veinsmobility 	totalDistance 	3409.6367205253
scalar RSUExampleScenario.node[137].veinsmobility 	totalCO2Emission 	759.11132711318
scalar RSUExampleScenario.node[138].veinsmobility 	startTime 	414.1
scalar RSUExampleScenario.node[138].veinsmobility 	totalTime 	337.8
scalar RSUExampleScenario.node[138].veinsmobility 	stopTime 	752
scalar RSUExampleScenario.node[138].veinsmobility 	minSpeed 	0.25919142016093
scalar RSUExampleScenario.node[138].veinsmobility 	maxSpeed 	13.999991977743
scalar RSUExampleScenario.node[138].veinsmobility 	totalDistance 	3414.0969382292
scalar RSUExampleScenario.node[138].veinsmobility 	totalCO2Emission 	760.04302417125
scalar RSUExampleScenario.node[139].veinsmobility 	startTime 	417.1
scalar RSUExampleScenario.node[139].veinsmobility 	totalTime 	338.5
scalar RSUExampleScenario.node[139].veinsmobility 	stopTime 	755.7
scalar RSUExampleScenario.node[139].veinsmobility 	minSpeed 	0.25315892051626
scalar RSUExampleScenario.node[139].veinsmobility 	maxSpeed 	13.99974254613
scalar RSUExampleScenario.node[139].veinsmobility 	totalDistance 	3409.7665864058
scalar RSUExampleScenario.node[139].veinsmobility 	totalCO2Emission 	759.52858442026
scalar RSUExampleScenario.node[140].veinsmobility 	startTime 	420.1
scalar RSUExampleScenario.node[140].veinsmobility 	totalTime 	339.2
scalar RSUExampleScenario.node[140].veinsmobility 	stopTime 	759.4
scalar RSUExampleScenario.node[140].veinsmobility 	minSpeed 	0.25170479061501
scalar RSUExampleScenario.node[140].veinsmobility 	maxSpeed 	13.999820704451
scalar RSUExampleScenario.node[140].veinsmobility 	totalDistance 	3414.1036207076
scalar RSUExampleScenario.node[140].veinsmobility 	totalCO2Emission 	761.52507506565
scalar RSUExampleScenario.node[141].veinsmobility 	startTime 	423.1
scalar RSUExampleScenario.node[141].veinsmobility 	totalTime 	339.9
scalar RSUExampleScenario.node[141].veinsmobility 	stopTime 	763.1
scalar RSUExampleScenario.node[141].veinsmobility 	minSpeed 	0.25586348748533
scalar RSUExampleScenario.node[141].veinsmobility 	maxSpeed 	13.999936277026
scalar RSUExampleScenario.node[141].veinsmobility 	totalDistance 	3410.2223749719
scalar RSUExampleScenario.node[141].veinsmobility 	totalCO2Emission 	761.36515407905
scalar RSUExampleScenario.node[142].veinsmobility 	startTime 	426.1
scalar RSUExampleScenario.node[142].veinsmobility 	totalTime 	340.6
scalar RSUExampleScenario.node[142].veinsmobility 	stopTime 	766.8
scalar RSUExampleScenario.node[142].veinsmobility 	minSpeed 	0.25280256469036
scalar RSUExampleScenario.node[142].veinsmobility 	maxSpeed 	13.999989286375
scalar RSUExampleScenario.node[142].veinsmobility 	totalDistance 	3409.6960519264
scalar RSUExampleScenario.node[142].veinsmobility 	totalCO2Emission 	763.82333070935
scalar RSUExampleScenario.node[143].veinsmobility 	startTime 	429.1
scalar RSUExampleScenario.node[143].veinsmobility 	totalTime 	341.3
scalar RSUExampleScenario.node[143].veinsmobility 	stopTime 	770.5
scalar RSUExampleScenario.node[143].veinsmobility 	minSpeed 	0.25005060893111
scalar RSUExampleScenario.node[143].veinsmobility 	maxSpeed 	13.999977471237
scalar RSUExampleScenario.node[143].veinsmobility 	totalDistance 	3414.0651922794
scalar RSUExampleScenario.node[143].veinsmobility 	totalCO2Emission 	762.74874652661
scalar RSUExampleScenario.node[144].veinsmobility 	startTime 	432.1
scalar RSUExampleScenario.node[144].veinsmobility 	totalTime 	342
scalar RSUExampleScenario.node[144].veinsmobility 	stopTime 	774.2
scalar RSUExampleScenario.node[144].veinsmobility 	minSpeed 	0.24801798860566
scalar RSUExampleScenario.node[144].veinsmobility 	maxSpeed 	13.999912973221
scalar RSUExampleScenario.node[144].veinsmobility 	totalDistance 	3410.015550982
scalar RSUExampleScenario.node[144].veinsmobility 	totalCO2Emission 	765.21781033015
scalar RSUExampleScenario.node[145].veinsmobility 	startTime 	435.1
scalar RSUExampleScenario.node[145].veinsmobility 	totalTime 	342.7
scalar RSUExampleScenario.node[145].veinsmobility 	stopTime 	777.9
scalar RSUExampleScenario.node[145].veinsmobility 	minSpeed 	0.25851962131588
scalar RSUExampleScenario.node[145].veinsmobility 	maxSpeed 	13.999868657896
scalar RSUExampleScenario.node[145].veinsmobility 	totalDistance 	3414.1843845735
scalar RSUExampleScenario.node[145].veinsmobility 	totalCO2Emission 	763.20677543839
scalar RSUExampleScenario.node[146].veinsmobility 	startTime 	438.1
scalar RSUExampleScenario.node[146].veinsmobility 	totalTime 	343.4
scalar RSUExampleScenario.node[146].veinsmobility 	stopTime 	781.6
scalar RSUExampleScenario.node[146].veinsmobility 	minSpeed 	0.25485222821822
scalar RSUExampleScenario.node[146].veinsmobility 	maxSpeed 	13.999892057378
scalar RSUExampleScenario.node[146].veinsmobility 	totalDistance 	3409.7878903128
scalar RSUExampleScenario.node[146].veinsmobility 	totalCO2Emission 	767.28349082814
scalar RSUExampleScenario.node[147].veinsmobility 	startTime 	441.1
scalar RSUExampleScenario.node[147].veinsmobility 	totalTime 	344.1
scalar RSUExampleScenario.node[147].veinsmobility 	stopTime 	785.3
scalar RSUExampleScenario.node[147].veinsmobility 	minSpeed 	0.25976788836601
scalar RSUExampleScenario.node[147].veinsmobility 	maxSpeed 	13.999970193482
scalar RSUExampleScenario.node[147].veinsmobility 	totalDistance 	3414.1071358479
scalar RSUExampleScenario.node[147].veinsmobility 	totalCO2Emission 	765.46241238346
scalar RSUExampleScenario.node[148].veinsmobility 	startTime 	444.1
scalar RSUExampleScenario.node[148].veinsmobility 	totalTime 	344.8
scalar RSUExampleScenario.node[148].veinsmobility 	stopTime 	789
scalar RSUExampleScenario.node[148].veinsmobility 	minSpeed 	0.25193462017318
scalar RSUExampleScenario.node[148].veinsmobility 	maxSpeed 	13.99998751373
scalar RSUExampleScenario.node[148].veinsmobility 	totalDistance 	3409.7355363437
scalar RSUExampleScenario.node[148].veinsmobility 	totalCO2Emission 	765.73377786352
scalar RSUExampleScenario.node[149].veinsmobility 	startTime 	447.1
scalar RSUExampleScenario.node[149].veinsmobility 	totalTime 	345.5
scalar RSUExampleScenario.node[149].veinsmobility 	stopTime 	792.7
scalar RSUExampleScenario.node[149].veinsmobility 	minSpeed 	0.25401833775849
scalar RSUExampleScenario.node[149].veinsmobility 	maxSpeed 	13.999997069484
scalar RSUExampleScenario.node[149].veinsmobility 	totalDistance 	3413.8527492992
scalar RSUExampleScenario.node[149].veinsmobility 	totalCO2Emission 	768.56431710265
scalar RSUExampleScenario.node[150].veinsmobility 	startTime 	450.1
scalar RSUExampleScenario.node[150].veinsmobility 	totalTime 	346.3
scalar RSUExampleScenario.node[150].veinsmobility 	stopTime 	796.5
scalar RSUExampleScenario.node[150].veinsmobility 	minSpeed 	0.25065758896782
scalar RSUExampleScenario.node[150].veinsmobility 	maxSpeed 	13.999977332035
scalar RSUExampleScenario.node[150].veinsmobility 	totalDistance 	3409.8838247791
scalar RSUExampleScenario.node[150].veinsmobility 	totalCO2Emission 	767.74113642425
scalar RSUExampleScenario.node[151].veinsmobility 	startTime 	453.1
scalar RSUExampleScenario.node[151].veinsmobility 	totalTime 	347
scalar RSUExampleScenario.node[151].veinsmobility 	stopTime 	800.2
scalar RSUExampleScenario.node[151].veinsmobility 	minSpeed 	0.2571237861861
scalar RSUExampleScenario.node[151].veinsmobility 	maxSpeed 	13.999999412377
scalar RSUExampleScenario.node[151].veinsmobility 	totalDistance 	3414.053036641
scalar RSUExampleScenario.node[151].veinsmobility 	totalCO2Emission 	766.42661967647
scalar RSUExampleScenario.node[152].veinsmobility 	startTime 	456.1
scalar RSUExampleScenario.node[152].veinsmobility 	totalTime 	347.7
scalar RSUExampleScenario.node[152].veinsmobility 	stopTime 	803.9
scalar RSUExampleScenario.node[152].veinsmobility 	minSpeed 	0.2478264032139
scalar RSUExampleScenario.node[152].veinsmobility 	maxSpeed 	13.999881609718
scalar RSUExampleScenario.node[152].veinsmobility 	totalDistance 	3410.124236078
[...]
scalar RSUExampleScenario.node[628].veinsmobility 	totalCO2Emission 	326.55121218589
scalar RSUExampleScenario.node[629].veinsmobility 	startTime 	1887.1
scalar RSUExampleScenario.node[629].veinsmobility 	totalTime 	112.8
scalar RSUExampleScenario.node[629].veinsmobility 	stopTime 	2000
scalar RSUExampleScenario.node[629].veinsmobility 	minSpeed 	0.25274039023533
scalar RSUExampleScenario.node[629].veinsmobility 	maxSpeed 	13.999927045805
scalar RSUExampleScenario.node[629].veinsmobility 	totalDistance 	1360.7784518543
scalar RSUExampleScenario.node[629].veinsmobility 	totalCO2Emission 	319.58451364729
scalar RSUExampleScenario.node[630].veinsmobility 	startTime 	1890.1
scalar RSUExampleScenario.node[630].veinsmobility 	totalTime 	109.8
scalar RSUExampleScenario.node[630].veinsmobility 	stopTime 	2000
scalar RSUExampleScenario.node[630].veinsmobility 	minSpeed 	0.25851874280581
scalar RSUExampleScenario.node[630].veinsmobility 	maxSpeed 	13.999478814378
scalar RSUExampleScenario.node[630].veinsmobility 	totalDistance 	1319.4029025258
scalar RSUExampleScenario.node[630].veinsmobility 	totalCO2Emission 	308.08548121288
scalar RSUExampleScenario.node[631].veinsmobility 	startTime 	1893.1
scalar RSUExampleScenario.node[631].veinsmobility 	totalTime 	106.8
scalar RSUExampleScenario.node[631].veinsmobility 	stopTime 	2000
scalar RSUExampleScenario.node[631].veinsmobility 	minSpeed 	0.25786408219556
scalar RSUExampleScenario.node[631].veinsmobility 	maxSpeed 	13.999492055078
scalar RSUExampleScenario.node[631].veinsmobility 	totalDistance 	1278.4622066321
scalar RSUExampleScenario.node[631].veinsmobility 	totalCO2Emission 	301.51735134167
scalar RSUExampleScenario.node[632].veinsmobility 	startTime 	1896.1
scalar RSUExampleScenario.node[632].veinsmobility 	totalTime 	103.8
scalar RSUExampleScenario.node[632].veinsmobility 	stopTime 	2000
scalar RSUExampleScenario.node[632].veinsmobility 	minSpeed 	0.2518291613271
scalar RSUExampleScenario.node[632].veinsmobility 	maxSpeed 	13.999956762155
scalar RSUExampleScenario.node[632].veinsmobility 	totalDistance 	1236.6333924079
scalar RSUExampleScenario.node[632].veinsmobility 	totalCO2Emission 	295.4758372293
scalar RSUExampleScenario.node[633].veinsmobility 	startTime 	1899.1
scalar RSUExampleScenario.node[633].veinsmobility 	totalTime 	100.8
scalar RSUExampleScenario.node[633].veinsmobility 	stopTime 	2000
scalar RSUExampleScenario.node[633].veinsmobility 	minSpeed 	0.25911642304389
scalar RSUExampleScenario.node[633].veinsmobility 	maxSpeed 	13.999773100812
scalar RSUExampleScenario.node[633].veinsmobility 	totalDistance 	1195.645265106
scalar RSUExampleScenario.node[633].veinsmobility 	totalCO2Emission 	289.13791155278
scalar RSUExampleScenario.node[634].veinsmobility 	startTime 	1902.1
scalar RSUExampleScenario.node[634].veinsmobility 	totalTime 	97.8
scalar RSUExampleScenario.node[634].veinsmobility 	stopTime 	2000
scalar RSUExampleScenario.node[634].veinsmobility 	minSpeed 	0.25233678027545
scalar RSUExampleScenario.node[634].veinsmobility 	maxSpeed 	13.99975070653
scalar RSUExampleScenario.node[634].veinsmobility 	totalDistance 	1153.4489834252
scalar RSUExampleScenario.node[634].veinsmobility 	totalCO2Emission 	283.62050565608
scalar RSUExampleScenario.node[635].veinsmobility 	startTime 	1905.1
scalar RSUExampleScenario.node[635].veinsmobility 	totalTime 	94.8
scalar RSUExampleScenario.node[635].veinsmobility 	stopTime 	2000
scalar RSUExampleScenario.node[635].veinsmobility 	minSpeed 	0.25062188871345
scalar RSUExampleScenario.node[635].veinsmobility 	maxSpeed 	13.99991637958
scalar RSUExampleScenario.node[635].veinsmobility 	totalDistance 	1111.0490555667
scalar RSUExampleScenario.node[635].veinsmobility 	totalCO2Emission 	276.92695280184
scalar RSUExampleScenario.node[636].veinsmobility 	startTime 	1908.1
scalar RSUExampleScenario.node[636].veinsmobility 	totalTime 	91.8
scalar RSUExampleScenario.node[636].veinsmobility 	stopTime 	2000
scalar RSUExampleScenario.node[636].veinsmobility 	minSpeed 	0.25163760194764
scalar RSUExampleScenario.node[636].veinsmobility 	maxSpeed 	13.999827053281
scalar RSUExampleScenario.node[636].veinsmobility 	totalDistance 	1068.0720559628
scalar RSUExampleScenario.node[636].veinsmobility 	totalCO2Emission 	267.69439440799
scalar RSUExampleScenario.node[637].veinsmobility 	startTime 	1911.1
scalar RSUExampleScenario.node[637].veinsmobility 	totalTime 	88.8
scalar RSUExampleScenario.node[637].veinsmobility 	stopTime 	2000
scalar RSUExampleScenario.node[637].veinsmobility 	minSpeed 	0.25312812635093
scalar RSUExampleScenario.node[637].veinsmobility 	maxSpeed 	13.999941796544
scalar RSUExampleScenario.node[637].veinsmobility 	totalDistance 	1026.7826103487
scalar RSUExampleScenario.node[637].veinsmobility 	totalCO2Emission 	260.92369961369
scalar RSUExampleScenario.node[638].veinsmobility 	startTime 	1914.1
scalar RSUExampleScenario.node[638].veinsmobility 	totalTime 	85.8
scalar RSUExampleScenario.node[638].veinsmobility 	stopTime 	2000
scalar RSUExampleScenario.node[638].veinsmobility 	minSpeed 	0.2523561377225
scalar RSUExampleScenario.node[638].veinsmobility 	maxSpeed 	13.999962038742
scalar RSUExampleScenario.node[638].veinsmobility 	totalDistance 	985.04110013601
scalar RSUExampleScenario.node[638].veinsmobility 	totalCO2Emission 	255.76373635184
scalar RSUExampleScenario.node[639].veinsmobility 	startTime 	1917.1
scalar RSUExampleScenario.node[639].veinsmobility 	totalTime 	82.8
scalar RSUExampleScenario.node[639].veinsmobility 	stopTime 	2000
scalar RSUExampleScenario.node[639].veinsmobility 	minSpeed 	0.2535445604166
scalar RSUExampleScenario.node[639].veinsmobility 	maxSpeed 	13.999965487234
scalar RSUExampleScenario.node[639].veinsmobility 	totalDistance 	952.5208652822
scalar RSUExampleScenario.node[639].veinsmobility 	totalCO2Emission 	231.35427838049
scalar RSUExampleScenario.node[640].veinsmobility 	startTime 	1920.1
scalar RSUExampleScenario.node[640].veinsmobility 	totalTime 	79.8
scalar RSUExampleScenario.node[640].veinsmobility 	stopTime 	2000
scalar RSUExampleScenario.node[640].veinsmobility 	minSpeed 	0.25110077828146
scalar RSUExampleScenario.node[640].veinsmobility 	maxSpeed 	13.999644731055
scalar RSUExampleScenario.node[640].veinsmobility 	totalDistance 	936.97425329667
scalar RSUExampleScenario.node[640].veinsmobility 	totalCO2Emission 	223.00599608022
scalar RSUExampleScenario.node[641].veinsmobility 	startTime 	1923.1
scalar RSUExampleScenario.node[641].veinsmobility 	totalTime 	76.8
scalar RSUExampleScenario.node[641].veinsmobility 	stopTime 	2000
scalar RSUExampleScenario.node[641].veinsmobility 	minSpeed 	0.25425771446526
scalar RSUExampleScenario.node[641].veinsmobility 	maxSpeed 	13.999245100929
scalar RSUExampleScenario.node[641].veinsmobility 	totalDistance 	912.16383757546
scalar RSUExampleScenario.node[641].veinsmobility 	totalCO2Emission 	217.60339365387
scalar RSUExampleScenario.node[642].veinsmobility 	startTime 	1926.1
scalar RSUExampleScenario.node[642].veinsmobility 	totalTime 	73.8
scalar RSUExampleScenario.node[642].veinsmobility 	stopTime 	2000
scalar RSUExampleScenario.node[642].veinsmobility 	minSpeed 	0.25075662646722
scalar RSUExampleScenario.node[642].veinsmobility 	maxSpeed 	13.999824494547
scalar RSUExampleScenario.node[642].veinsmobility 	totalDistance 	873.26038647632
scalar RSUExampleScenario.node[642].veinsmobility 	totalCO2Emission 	213.62398083992
scalar RSUExampleScenario.node[643].veinsmobility 	startTime 	1929.1
scalar RSUExampleScenario.node[643].veinsmobility 	totalTime 	70.8
scalar RSUExampleScenario.node[643].veinsmobility 	stopTime 	2000
scalar RSUExampleScenario.node[643].veinsmobility 	minSpeed 	0.25307154122414
scalar RSUExampleScenario.node[643].veinsmobility 	maxSpeed 	13.999740722727
scalar RSUExampleScenario.node[643].veinsmobility 	totalDistance 	828.96995150026
scalar RSUExampleScenario.node[643].veinsmobility 	totalCO2Emission 	204.46003780767
scalar RSUExampleScenario.node[644].veinsmobility 	startTime 	1932.1
scalar RSUExampleScenario.node[644].veinsmobility 	totalTime 	67.8
scalar RSUExampleScenario.node[644].veinsmobility 	stopTime 	2000
scalar RSUExampleScenario.node[644].veinsmobility 	minSpeed 	0.24865737371519
scalar RSUExampleScenario.node[644].veinsmobility 	maxSpeed 	13.998954884268
scalar RSUExampleScenario.node[644].veinsmobility 	totalDistance 	788.13386870138
scalar RSUExampleScenario.node[644].veinsmobility 	totalCO2Emission 	200.68965043941
scalar RSUExampleScenario.node[645].veinsmobility 	startTime 	1935.1
scalar RSUExampleScenario.node[645].veinsmobility 	totalTime 	64.8
scalar RSUExampleScenario.node[645].veinsmobility 	stopTime 	2000
scalar RSUExampleScenario.node[645].veinsmobility 	minSpeed 	0.24996200611023
scalar RSUExampleScenario.node[645].veinsmobility 	maxSpeed 	13.999504132064
scalar RSUExampleScenario.node[645].veinsmobility 	totalDistance 	747.41744671799
scalar RSUExampleScenario.node[645].veinsmobility 	totalCO2Emission 	193.10870999122
scalar RSUExampleScenario.node[646].veinsmobility 	startTime 	1938.1
scalar RSUExampleScenario.node[646].veinsmobility 	totalTime 	61.8
scalar RSUExampleScenario.node[646].veinsmobility 	stopTime 	2000
scalar RSUExampleScenario.node[646].veinsmobility 	minSpeed 	0.25199887596373
scalar RSUExampleScenario.node[646].veinsmobility 	maxSpeed 	13.999226396496
scalar RSUExampleScenario.node[646].veinsmobility 	totalDistance 	706.7287391961
scalar RSUExampleScenario.node[646].veinsmobility 	totalCO2Emission 	186.32263193366
scalar RSUExampleScenario.node[647].veinsmobility 	startTime 	1941.1
scalar RSUExampleScenario.node[647].veinsmobility 	totalTime 	58.8
scalar RSUExampleScenario.node[647].veinsmobility 	stopTime 	2000
scalar RSUExampleScenario.node[647].veinsmobility 	minSpeed 	0.2500994903082
scalar RSUExampleScenario.node[647].veinsmobility 	maxSpeed 	13.999653583623
scalar RSUExampleScenario.node[647].veinsmobility 	totalDistance 	664.74648517871
scalar RSUExampleScenario.node[647].veinsmobility 	totalCO2Emission 	179.01590163531
scalar RSUExampleScenario.node[648].veinsmobility 	startTime 	1944.1
scalar RSUExampleScenario.node[648].veinsmobility 	totalTime 	55.8
scalar RSUExampleScenario.node[648].veinsmobility 	stopTime 	2000
scalar RSUExampleScenario.node[648].veinsmobility 	minSpeed 	0.25149675333616
scalar RSUExampleScenario.node[648].veinsmobility 	maxSpeed 	13.999906415481
scalar RSUExampleScenario.node[648].veinsmobility 	totalDistance 	621.9007945071
scalar RSUExampleScenario.node[648].veinsmobility 	totalCO2Emission 	172.17906787517
scalar RSUExampleScenario.node[649].veinsmobility 	startTime 	1947.1
scalar RSUExampleScenario.node[649].veinsmobility 	totalTime 	52.8
scalar RSUExampleScenario.node[649].veinsmobility 	stopTime 	2000
scalar RSUExampleScenario.node[649].veinsmobility 	minSpeed 	0.2530149129685
scalar RSUExampleScenario.node[649].veinsmobility 	maxSpeed 	13.999429956404
scalar RSUExampleScenario.node[649].veinsmobility 	totalDistance 	579.04424612165
scalar RSUExampleScenario.node[649].veinsmobility 	totalCO2Emission 	165.5127997394
scalar RSUExampleScenario.node[650].veinsmobility 	startTime 	1950.1
scalar RSUExampleScenario.node[650].veinsmobility 	totalTime 	49.8
scalar RSUExampleScenario.node[650].veinsmobility 	stopTime 	2000
scalar RSUExampleScenario.node[650].veinsmobility 	minSpeed 	0.25802404381288
scalar RSUExampleScenario.node[650].veinsmobility 	maxSpeed 	13.999462285517
scalar RSUExampleScenario.node[650].veinsmobility 	totalDistance 	537.95971809659
scalar RSUExampleScenario.node[650].veinsmobility 	totalCO2Emission 	157.59618279225
scalar RSUExampleScenario.node[651].veinsmobility 	startTime 	1953.1
scalar RSUExampleScenario.node[651].veinsmobility 	totalTime 	46.8
scalar RSUExampleScenario.node[651].veinsmobility 	stopTime 	2000
scalar RSUExampleScenario.node[651].veinsmobility 	minSpeed 	0.24915225185524
scalar RSUExampleScenario.node[651].veinsmobility 	maxSpeed 	13.999743988763
scalar RSUExampleScenario.node[651].veinsmobility 	totalDistance 	496.21926277899
scalar RSUExampleScenario.node[651].veinsmobility 	totalCO2Emission 	150.63709741844
scalar RSUExampleScenario.node[652].veinsmobility 	startTime 	1956.1
scalar RSUExampleScenario.node[652].veinsmobility 	totalTime 	43.8
scalar RSUExampleScenario.node[652].veinsmobility 	stopTime 	2000
scalar RSUExampleScenario.node[652].veinsmobility 	minSpeed 	0.25894498884073
scalar RSUExampleScenario.node[652].veinsmobility 	maxSpeed 	13.99924509987
scalar RSUExampleScenario.node[652].veinsmobility 	totalDistance 	454.52599705943
scalar RSUExampleScenario.node[652].veinsmobility 	totalCO2Emission 	143.16157006462
scalar RSUExampleScenario.node[653].veinsmobility 	startTime 	1959.1
scalar RSUExampleScenario.node[653].veinsmobility 	totalTime 	40.8
scalar RSUExampleScenario.node[653].veinsmobility 	stopTime 	2000
scalar RSUExampleScenario.node[653].veinsmobility 	minSpeed 	0.25555910598557
scalar RSUExampleScenario.node[653].veinsmobility 	maxSpeed 	13.999718728012
scalar RSUExampleScenario.node[653].veinsmobility 	totalDistance 	413.29764274899
scalar RSUExampleScenario.node[653].veinsmobility 	totalCO2Emission 	137.36531341859
scalar RSUExampleScenario.node[654].veinsmobility 	startTime 	1962.1
scalar RSUExampleScenario.node[654].veinsmobility 	totalTime 	37.8
scalar RSUExampleScenario.node[654].veinsmobility 	stopTime 	2000
scalar RSUExampleScenario.node[654].veinsmobility 	minSpeed 	0.25334730291064
scalar RSUExampleScenario.node[654].veinsmobility 	maxSpeed 	13.999100044887
scalar RSUExampleScenario.node[654].veinsmobility 	totalDistance 	372.04187433537
scalar RSUExampleScenario.node[654].veinsmobility 	totalCO2Emission 	129.16947635664
scalar RSUExampleScenario.node[655].veinsmobility 	startTime 	1965.1
scalar RSUExampleScenario.node[655].veinsmobility 	totalTime 	34.8
scalar RSUExampleScenario.node[655].veinsmobility 	stopTime 	2000
scalar RSUExampleScenario.node[655].veinsmobility 	minSpeed 	0.2579843351664
scalar RSUExampleScenario.node[655].veinsmobility 	maxSpeed 	13.997947761514
scalar RSUExampleScenario.node[655].veinsmobility 	totalDistance 	329.12719509663
scalar RSUExampleScenario.node[655].veinsmobility 	totalCO2Emission 	122.56944539898
scalar RSUExampleScenario.node[656].veinsmobility 	startTime 	1968.1
scalar RSUExampleScenario.node[656].veinsmobility 	totalTime 	31.8
scalar RSUExampleScenario.node[656].veinsmobility 	stopTime 	2000
scalar RSUExampleScenario.node[656].veinsmobility 	minSpeed 	0.25057086360338
scalar RSUExampleScenario.node[656].veinsmobility 	maxSpeed 	13.995369052889
scalar RSUExampleScenario.node[656].veinsmobility 	totalDistance 	287.33645567226
scalar RSUExampleScenario.node[656].veinsmobility 	totalCO2Emission 	115.85958146289
scalar RSUExampleScenario.node[657].veinsmobility 	startTime 	1971.1
scalar RSUExampleScenario.node[657].veinsmobility 	totalTime 	28.8
scalar RSUExampleScenario.node[657].veinsmobility 	stopTime 	2000
scalar RSUExampleScenario.node[657].veinsmobility 	minSpeed 	0.25050856412039
scalar RSUExampleScenario.node[657].veinsmobility 	maxSpeed 	13.884186646941
scalar RSUExampleScenario.node[657].veinsmobility 	totalDistance 	248.56651127677
scalar RSUExampleScenario.node[657].veinsmobility 	totalCO2Emission 	98.938682357149
scalar RSUExampleScenario.node[658].veinsmobility 	startTime 	1974.1
scalar RSUExampleScenario.node[658].veinsmobility 	totalTime 	25.8
scalar RSUExampleScenario.node[658].veinsmobility 	stopTime 	2000
scalar RSUExampleScenario.node[658].veinsmobility 	minSpeed 	0.24755284866877
scalar RSUExampleScenario.node[658].veinsmobility 	maxSpeed 	13.885226718998
scalar RSUExampleScenario.node[658].veinsmobility 	totalDistance 	225.51651314274
scalar RSUExampleScenario.node[658].veinsmobility 	totalCO2Emission 	82.884047149864
scalar RSUExampleScenario.node[659].veinsmobility 	startTime 	1977.1
scalar RSUExampleScenario.node[659].veinsmobility 	totalTime 	22.8
scalar RSUExampleScenario.node[659].veinsmobility 	stopTime 	2000
scalar RSUExampleScenario.node[659].veinsmobility 	minSpeed 	0.25522446601535
scalar RSUExampleScenario.node[659].veinsmobility 	maxSpeed 	13.889250900547
scalar RSUExampleScenario.node[659].veinsmobility 	totalDistance 	207.48583221093
scalar RSUExampleScenario.node[659].veinsmobility 	totalCO2Emission 	78.125142136176
scalar RSUExampleScenario.node[660].veinsmobility 	startTime 	1980.1
scalar RSUExampleScenario.node[660].veinsmobility 	totalTime 	19.8
scalar RSUExampleScenario.node[660].veinsmobility 	stopTime 	2000
scalar RSUExampleScenario.node[660].veinsmobility 	minSpeed 	0.25549423942948
scalar RSUExampleScenario.node[660].veinsmobility 	maxSpeed 	13.887970307833
scalar RSUExampleScenario.node[660].veinsmobility 	totalDistance 	174.38414823616
scalar RSUExampleScenario.node[660].veinsmobility 	totalCO2Emission 	75.563722752991
scalar RSUExampleScenario.node[661].veinsmobility 	startTime 	1983.1
scalar RSUExampleScenario.node[661].veinsmobility 	totalTime 	16.8
scalar RSUExampleScenario.node[661].veinsmobility 	stopTime 	2000
scalar RSUExampleScenario.node[661].veinsmobility 	minSpeed 	0.25310823547305
scalar RSUExampleScenario.node[661].veinsmobility 	maxSpeed 	13.876112813908
scalar RSUExampleScenario.node[661].veinsmobility 	totalDistance 	136.58118881059
scalar RSUExampleScenario.node[661].veinsmobility 	totalCO2Emission 	57.100578579523
scalar RSUExampleScenario.node[662].veinsmobility 	startTime 	1986.1
scalar RSUExampleScenario.node[662].veinsmobility 	totalTime 	13.8
scalar RSUExampleScenario.node[662].veinsmobility 	stopTime 	2000
scalar RSUExampleScenario.node[662].veinsmobility 	minSpeed 	0.24843926306977
scalar RSUExampleScenario.node[662].veinsmobility 	maxSpeed 	13.888827417889
scalar RSUExampleScenario.node[662].veinsmobility 	totalDistance 	116.71841945027
scalar RSUExampleScenario.node[662].veinsmobility 	totalCO2Emission 	42.846046560059
scalar RSUExampleScenario.node[663].veinsmobility 	startTime 	1989.1
scalar RSUExampleScenario.node[663].veinsmobility 	totalTime 	10.8
scalar RSUExampleScenario.node[663].veinsmobility 	stopTime 	2000
scalar RSUExampleScenario.node[663].veinsmobility 	minSpeed 	0.25126278590853
scalar RSUExampleScenario.node[663].veinsmobility 	maxSpeed 	13.886864568356
scalar RSUExampleScenario.node[663].veinsmobility 	totalDistance 	97.478151710569
scalar RSUExampleScenario.node[663].veinsmobility 	totalCO2Emission 	39.126112227846
scalar RSUExampleScenario.node[664].veinsmobility 	startTime 	1992.1
scalar RSUExampleScenario.node[664].veinsmobility 	totalTime 	7.8
scalar RSUExampleScenario.node[664].veinsmobility 	stopTime 	2000
scalar RSUExampleScenario.node[664].veinsmobility 	minSpeed 	0.25052363902912
scalar RSUExampleScenario.node[664].veinsmobility 	maxSpeed 	13.882962237445
scalar RSUExampleScenario.node[664].veinsmobility 	totalDistance 	60.734946906435
scalar RSUExampleScenario.node[664].veinsmobility 	totalCO2Emission 	35.834638746241
scalar RSUExampleScenario.node[665].veinsmobility 	startTime 	1995.1
scalar RSUExampleScenario.node[665].veinsmobility 	totalTime 	4.8
scalar RSUExampleScenario.node[665].veinsmobility 	stopTime 	2000
scalar RSUExampleScenario.node[665].veinsmobility 	minSpeed 	0.25482388384966
scalar RSUExampleScenario.node[665].veinsmobility 	maxSpeed 	9.8768300561595
scalar RSUExampleScenario.node[665].veinsmobility 	totalDistance 	24.784348570657
scalar RSUExampleScenario.node[665].veinsmobility 	totalCO2Emission 	18.518287118909
scalar RSUExampleScenario.node[666].veinsmobility 	startTime 	1998.1
scalar RSUExampleScenario.node[666].veinsmobility 	totalTime 	1.8
scalar RSUExampleScenario.node[666].veinsmobility 	stopTime 	2000
scalar RSUExampleScenario.node[666].veinsmobility 	minSpeed 	0.25177855078247
scalar RSUExampleScenario.node[666].veinsmobility 	maxSpeed 	3.7520173124404
scalar RSUExampleScenario.node[666].veinsmobility 	totalDistance 	3.7595065825859
scalar RSUExampleScenario.node[666].veinsmobility 	totalCO2Emission 	3.8483126438026
