version 2
run statistic3-1516-20150325-10:29:21-22472
attr c 24
attr configname statistic3
attr datetime 20150325-10:29:21
attr experiment statistic3
attr inifile omnetpp.ini
attr iterationvars "$p=1/10, $c=24"
attr iterationvars2 "$p=1/10, $c=24, $repetition=16"
attr measurement "$p=1/10, $c=24"
attr network RSUExampleScenario
attr p 1/10
attr processid 22472
attr repetition 16
attr replication #16
attr resultdir results
attr runnumber 1516
attr seedset 1516

scalar . 	c 	24
scalar RSUExampleScenario.rsu[0].appl 	NumberofCH 	14
scalar RSUExampleScenario.rsu[0].appl 	NumberofON 	86
scalar RSUExampleScenario.rsu[0].appl 	NumberofFN 	0
scalar RSUExampleScenario.rsu[0].appl 	meanClusterNodes 	6.1428571428571
scalar RSUExampleScenario.rsu[0].appl 	varClusterNodes 	5.5530833501648
scalar RSUExampleScenario.rsu[0].appl 	sumCHutility 	463.25923639915
scalar RSUExampleScenario.rsu[0].appl 	meanCHutility 	33.089945457082
scalar RSUExampleScenario.rsu[0].appl 	varCHutility 	13.656368241021
scalar RSUExampleScenario.rsu[0].appl 	sumDiffCHutility 	14.676244137866
scalar RSUExampleScenario.rsu[0].appl 	meanDiffCHutility 	1.0483031527047
scalar RSUExampleScenario.rsu[0].appl 	varDiffCHutility 	13.285829884182
scalar RSUExampleScenario.rsu[0].appl 	expectedCHutility 	477.93548053701
scalar RSUExampleScenario.rsu[0].appl 	meanExpectedCHutility 	34.138248609787
scalar RSUExampleScenario.rsu[0].appl 	varExpectedCHutility 	0.82754009379251
scalar RSUExampleScenario.node[0].veinsmobility 	startTime 	0.1
scalar RSUExampleScenario.node[0].veinsmobility 	totalTime 	349.9
scalar RSUExampleScenario.node[0].veinsmobility 	stopTime 	350
scalar RSUExampleScenario.node[0].veinsmobility 	minSpeed 	0
scalar RSUExampleScenario.node[0].veinsmobility 	maxSpeed 	13.99995165071
scalar RSUExampleScenario.node[0].veinsmobility 	totalDistance 	3132.1503203964
scalar RSUExampleScenario.node[0].veinsmobility 	totalCO2Emission 	742.36359921487
scalar RSUExampleScenario.node[1].veinsmobility 	startTime 	2.5
scalar RSUExampleScenario.node[1].veinsmobility 	totalTime 	347.5
scalar RSUExampleScenario.node[1].veinsmobility 	stopTime 	350
scalar RSUExampleScenario.node[1].veinsmobility 	minSpeed 	0
scalar RSUExampleScenario.node[1].veinsmobility 	maxSpeed 	13.999951896789
scalar RSUExampleScenario.node[1].veinsmobility 	totalDistance 	3079.3910259213
scalar RSUExampleScenario.node[1].veinsmobility 	totalCO2Emission 	732.76726378907
scalar RSUExampleScenario.node[10].veinsmobility 	startTime 	24.2
scalar RSUExampleScenario.node[10].veinsmobility 	totalTime 	325.8
scalar RSUExampleScenario.node[10].veinsmobility 	stopTime 	350
scalar RSUExampleScenario.node[10].veinsmobility 	minSpeed 	0
scalar RSUExampleScenario.node[10].veinsmobility 	maxSpeed 	13.99995291579
scalar RSUExampleScenario.node[10].veinsmobility 	totalDistance 	2791.9945608955
scalar RSUExampleScenario.node[10].veinsmobility 	totalCO2Emission 	660.19352226241
scalar RSUExampleScenario.node[11].veinsmobility 	startTime 	26.6
scalar RSUExampleScenario.node[11].veinsmobility 	totalTime 	323.4
scalar RSUExampleScenario.node[11].veinsmobility 	stopTime 	350
scalar RSUExampleScenario.node[11].veinsmobility 	minSpeed 	0
scalar RSUExampleScenario.node[11].veinsmobility 	maxSpeed 	13.999905773588
scalar RSUExampleScenario.node[11].veinsmobility 	totalDistance 	2753.5066831193
scalar RSUExampleScenario.node[11].veinsmobility 	totalCO2Emission 	655.45134467936
scalar RSUExampleScenario.node[12].veinsmobility 	startTime 	29
scalar RSUExampleScenario.node[12].veinsmobility 	totalTime 	321
scalar RSUExampleScenario.node[12].veinsmobility 	stopTime 	350
scalar RSUExampleScenario.node[12].veinsmobility 	minSpeed 	0
scalar RSUExampleScenario.node[12].veinsmobility 	maxSpeed 	13.99984611863
scalar RSUExampleScenario.node[12].veinsmobility 	totalDistance 	2720.8263704648
scalar RSUExampleScenario.node[12].veinsmobility 	totalCO2Emission 	649.57990240344
scalar RSUExampleScenario.node[13].veinsmobility 	startTime 	31.4
scalar RSUExampleScenario.node[13].veinsmobility 	totalTime 	318.6
scalar RSUExampleScenario.node[13].veinsmobility 	stopTime 	350
scalar RSUExampleScenario.node[13].veinsmobility 	minSpeed 	0
scalar RSUExampleScenario.node[13].veinsmobility 	maxSpeed 	13.999898936716
scalar RSUExampleScenario.node[13].veinsmobility 	totalDistance 	2679.5541490963
scalar RSUExampleScenario.node[13].veinsmobility 	totalCO2Emission 	639.16582954227
scalar RSUExampleScenario.node[14].veinsmobility 	startTime 	33.8
scalar RSUExampleScenario.node[14].veinsmobility 	totalTime 	316.2
scalar RSUExampleScenario.node[14].veinsmobility 	stopTime 	350
scalar RSUExampleScenario.node[14].veinsmobility 	minSpeed 	0
scalar RSUExampleScenario.node[14].veinsmobility 	maxSpeed 	13.99985264919
scalar RSUExampleScenario.node[14].veinsmobility 	totalDistance 	2651.6918828614
scalar RSUExampleScenario.node[14].veinsmobility 	totalCO2Emission 	635.68030527208
scalar RSUExampleScenario.node[15].veinsmobility 	startTime 	36.2
scalar RSUExampleScenario.node[15].veinsmobility 	totalTime 	313.8
scalar RSUExampleScenario.node[15].veinsmobility 	stopTime 	350
scalar RSUExampleScenario.node[15].veinsmobility 	minSpeed 	0
scalar RSUExampleScenario.node[15].veinsmobility 	maxSpeed 	13.999935517421
scalar RSUExampleScenario.node[15].veinsmobility 	totalDistance 	2612.110607253
scalar RSUExampleScenario.node[15].veinsmobility 	totalCO2Emission 	633.25651979401
scalar RSUExampleScenario.node[16].veinsmobility 	startTime 	38.6
scalar RSUExampleScenario.node[16].veinsmobility 	totalTime 	311.4
scalar RSUExampleScenario.node[16].veinsmobility 	stopTime 	350
scalar RSUExampleScenario.node[16].veinsmobility 	minSpeed 	0
scalar RSUExampleScenario.node[16].veinsmobility 	maxSpeed 	13.999912720483
scalar RSUExampleScenario.node[16].veinsmobility 	totalDistance 	2583.2926224771
scalar RSUExampleScenario.node[16].veinsmobility 	totalCO2Emission 	627.83921273764
scalar RSUExampleScenario.node[17].veinsmobility 	startTime 	41
scalar RSUExampleScenario.node[17].veinsmobility 	totalTime 	309
scalar RSUExampleScenario.node[17].veinsmobility 	stopTime 	350
scalar RSUExampleScenario.node[17].veinsmobility 	minSpeed 	0
scalar RSUExampleScenario.node[17].veinsmobility 	maxSpeed 	13.999998836529
scalar RSUExampleScenario.node[17].veinsmobility 	totalDistance 	2539.022124903
scalar RSUExampleScenario.node[17].veinsmobility 	totalCO2Emission 	623.08330750729
scalar RSUExampleScenario.node[18].veinsmobility 	startTime 	43.4
scalar RSUExampleScenario.node[18].veinsmobility 	totalTime 	306.6
scalar RSUExampleScenario.node[18].veinsmobility 	stopTime 	350
scalar RSUExampleScenario.node[18].veinsmobility 	minSpeed 	0
scalar RSUExampleScenario.node[18].veinsmobility 	maxSpeed 	13.999949227637
scalar RSUExampleScenario.node[18].veinsmobility 	totalDistance 	2508.1601659939
scalar RSUExampleScenario.node[18].veinsmobility 	totalCO2Emission 	614.56462152975
scalar RSUExampleScenario.node[19].veinsmobility 	startTime 	45.8
scalar RSUExampleScenario.node[19].veinsmobility 	totalTime 	304.2
scalar RSUExampleScenario.node[19].veinsmobility 	stopTime 	350
scalar RSUExampleScenario.node[19].veinsmobility 	minSpeed 	0
scalar RSUExampleScenario.node[19].veinsmobility 	maxSpeed 	13.999988170697
scalar RSUExampleScenario.node[19].veinsmobility 	totalDistance 	2470.9137227412
scalar RSUExampleScenario.node[19].veinsmobility 	totalCO2Emission 	610.03092904417
scalar RSUExampleScenario.node[2].veinsmobility 	startTime 	4.9
scalar RSUExampleScenario.node[2].veinsmobility 	totalTime 	345.1
scalar RSUExampleScenario.node[2].veinsmobility 	stopTime 	350
scalar RSUExampleScenario.node[2].veinsmobility 	minSpeed 	0
scalar RSUExampleScenario.node[2].veinsmobility 	maxSpeed 	13.99994772689
scalar RSUExampleScenario.node[2].veinsmobility 	totalDistance 	3037.5056049657
scalar RSUExampleScenario.node[2].veinsmobility 	totalCO2Emission 	725.71664734206
scalar RSUExampleScenario.node[20].veinsmobility 	startTime 	48.3
scalar RSUExampleScenario.node[20].veinsmobility 	totalTime 	301.7
scalar RSUExampleScenario.node[20].veinsmobility 	stopTime 	350
scalar RSUExampleScenario.node[20].veinsmobility 	minSpeed 	0
scalar RSUExampleScenario.node[20].veinsmobility 	maxSpeed 	13.999966556784
scalar RSUExampleScenario.node[20].veinsmobility 	totalDistance 	2442.903380934
scalar RSUExampleScenario.node[20].veinsmobility 	totalCO2Emission 	603.31743452633
scalar RSUExampleScenario.node[21].veinsmobility 	startTime 	50.7
scalar RSUExampleScenario.node[21].veinsmobility 	totalTime 	299.3
scalar RSUExampleScenario.node[21].veinsmobility 	stopTime 	350
scalar RSUExampleScenario.node[21].veinsmobility 	minSpeed 	0
scalar RSUExampleScenario.node[21].veinsmobility 	maxSpeed 	13.999900820383
scalar RSUExampleScenario.node[21].veinsmobility 	totalDistance 	2403.3706912364
scalar RSUExampleScenario.node[21].veinsmobility 	totalCO2Emission 	598.29909295664
scalar RSUExampleScenario.node[22].veinsmobility 	startTime 	53.1
scalar RSUExampleScenario.node[22].veinsmobility 	totalTime 	296.9
scalar RSUExampleScenario.node[22].veinsmobility 	stopTime 	350
scalar RSUExampleScenario.node[22].veinsmobility 	minSpeed 	0
scalar RSUExampleScenario.node[22].veinsmobility 	maxSpeed 	13.999822607157
scalar RSUExampleScenario.node[22].veinsmobility 	totalDistance 	2373.1609048785
scalar RSUExampleScenario.node[22].veinsmobility 	totalCO2Emission 	588.51916244293
scalar RSUExampleScenario.node[23].veinsmobility 	startTime 	55.5
scalar RSUExampleScenario.node[23].veinsmobility 	totalTime 	294.5
scalar RSUExampleScenario.node[23].veinsmobility 	stopTime 	350
scalar RSUExampleScenario.node[23].veinsmobility 	minSpeed 	0
scalar RSUExampleScenario.node[23].veinsmobility 	maxSpeed 	13.999978800395
scalar RSUExampleScenario.node[23].veinsmobility 	totalDistance 	2335.084433664
scalar RSUExampleScenario.node[23].veinsmobility 	totalCO2Emission 	587.50535096678
scalar RSUExampleScenario.node[24].veinsmobility 	startTime 	57.9
scalar RSUExampleScenario.node[24].veinsmobility 	totalTime 	292.1
scalar RSUExampleScenario.node[24].veinsmobility 	stopTime 	350
scalar RSUExampleScenario.node[24].veinsmobility 	minSpeed 	0
scalar RSUExampleScenario.node[24].veinsmobility 	maxSpeed 	13.999902055378
scalar RSUExampleScenario.node[24].veinsmobility 	totalDistance 	2307.3531168207
scalar RSUExampleScenario.node[24].veinsmobility 	totalCO2Emission 	579.23223946804
scalar RSUExampleScenario.node[25].veinsmobility 	startTime 	60.3
scalar RSUExampleScenario.node[25].veinsmobility 	totalTime 	289.7
scalar RSUExampleScenario.node[25].veinsmobility 	stopTime 	350
scalar RSUExampleScenario.node[25].veinsmobility 	minSpeed 	0
scalar RSUExampleScenario.node[25].veinsmobility 	maxSpeed 	13.999972125881
scalar RSUExampleScenario.node[25].veinsmobility 	totalDistance 	2269.0535452252
scalar RSUExampleScenario.node[25].veinsmobility 	totalCO2Emission 	578.09250585298
scalar RSUExampleScenario.node[26].veinsmobility 	startTime 	62.7
scalar RSUExampleScenario.node[26].veinsmobility 	totalTime 	287.3
scalar RSUExampleScenario.node[26].veinsmobility 	stopTime 	350
scalar RSUExampleScenario.node[26].veinsmobility 	minSpeed 	0
scalar RSUExampleScenario.node[26].veinsmobility 	maxSpeed 	13.999833072887
scalar RSUExampleScenario.node[26].veinsmobility 	totalDistance 	2237.7795028
scalar RSUExampleScenario.node[26].veinsmobility 	totalCO2Emission 	572.33451315293
scalar RSUExampleScenario.node[27].veinsmobility 	startTime 	65.1
scalar RSUExampleScenario.node[27].veinsmobility 	totalTime 	284.9
scalar RSUExampleScenario.node[27].veinsmobility 	stopTime 	350
scalar RSUExampleScenario.node[27].veinsmobility 	minSpeed 	0
scalar RSUExampleScenario.node[27].veinsmobility 	maxSpeed 	13.999844986759
scalar RSUExampleScenario.node[27].veinsmobility 	totalDistance 	2200.8288949729
scalar RSUExampleScenario.node[27].veinsmobility 	totalCO2Emission 	565.02840155149
scalar RSUExampleScenario.node[28].veinsmobility 	startTime 	67.5
scalar RSUExampleScenario.node[28].veinsmobility 	totalTime 	282.5
scalar RSUExampleScenario.node[28].veinsmobility 	stopTime 	350
scalar RSUExampleScenario.node[28].veinsmobility 	minSpeed 	0
scalar RSUExampleScenario.node[28].veinsmobility 	maxSpeed 	13.999990411254
scalar RSUExampleScenario.node[28].veinsmobility 	totalDistance 	2168.4475892203
scalar RSUExampleScenario.node[28].veinsmobility 	totalCO2Emission 	556.3820978469
scalar RSUExampleScenario.node[29].veinsmobility 	startTime 	69.9
scalar RSUExampleScenario.node[29].veinsmobility 	totalTime 	280.1
scalar RSUExampleScenario.node[29].veinsmobility 	stopTime 	350
scalar RSUExampleScenario.node[29].veinsmobility 	minSpeed 	0
scalar RSUExampleScenario.node[29].veinsmobility 	maxSpeed 	13.999970483903
scalar RSUExampleScenario.node[29].veinsmobility 	totalDistance 	2133.4792827535
scalar RSUExampleScenario.node[29].veinsmobility 	totalCO2Emission 	553.9274192397
scalar RSUExampleScenario.node[3].veinsmobility 	startTime 	7.3
scalar RSUExampleScenario.node[3].veinsmobility 	totalTime 	342.7
scalar RSUExampleScenario.node[3].veinsmobility 	stopTime 	350
scalar RSUExampleScenario.node[3].veinsmobility 	minSpeed 	0
scalar RSUExampleScenario.node[3].veinsmobility 	maxSpeed 	13.999970629977
scalar RSUExampleScenario.node[3].veinsmobility 	totalDistance 	2990.9673883679
scalar RSUExampleScenario.node[3].veinsmobility 	totalCO2Emission 	719.81319750857
scalar RSUExampleScenario.node[30].veinsmobility 	startTime 	72.4
scalar RSUExampleScenario.node[30].veinsmobility 	totalTime 	277.6
scalar RSUExampleScenario.node[30].veinsmobility 	stopTime 	350
scalar RSUExampleScenario.node[30].veinsmobility 	minSpeed 	0
scalar RSUExampleScenario.node[30].veinsmobility 	maxSpeed 	13.999967385309
scalar RSUExampleScenario.node[30].veinsmobility 	totalDistance 	2101.8608396481
scalar RSUExampleScenario.node[30].veinsmobility 	totalCO2Emission 	547.17928559907
scalar RSUExampleScenario.node[31].veinsmobility 	startTime 	74.8
scalar RSUExampleScenario.node[31].veinsmobility 	totalTime 	275.2
scalar RSUExampleScenario.node[31].veinsmobility 	stopTime 	350
scalar RSUExampleScenario.node[31].veinsmobility 	minSpeed 	0
scalar RSUExampleScenario.node[31].veinsmobility 	maxSpeed 	13.999826767158
scalar RSUExampleScenario.node[31].veinsmobility 	totalDistance 	2066.0366522235
scalar RSUExampleScenario.node[31].veinsmobility 	totalCO2Emission 	543.59063968326
scalar RSUExampleScenario.node[32].veinsmobility 	startTime 	77.2
scalar RSUExampleScenario.node[32].veinsmobility 	totalTime 	272.8
scalar RSUExampleScenario.node[32].veinsmobility 	stopTime 	350
scalar RSUExampleScenario.node[32].veinsmobility 	minSpeed 	0
scalar RSUExampleScenario.node[32].veinsmobility 	maxSpeed 	13.999976291179
scalar RSUExampleScenario.node[32].veinsmobility 	totalDistance 	2032.3021438303
scalar RSUExampleScenario.node[32].veinsmobility 	totalCO2Emission 	533.84851692034
scalar RSUExampleScenario.node[33].veinsmobility 	startTime 	79.6
scalar RSUExampleScenario.node[33].veinsmobility 	totalTime 	270.4
scalar RSUExampleScenario.node[33].veinsmobility 	stopTime 	350
scalar RSUExampleScenario.node[33].veinsmobility 	minSpeed 	0
scalar RSUExampleScenario.node[33].veinsmobility 	maxSpeed 	13.99986115522
scalar RSUExampleScenario.node[33].veinsmobility 	totalDistance 	1998.1541629782
scalar RSUExampleScenario.node[33].veinsmobility 	totalCO2Emission 	528.25022034748
scalar RSUExampleScenario.node[34].veinsmobility 	startTime 	82
scalar RSUExampleScenario.node[34].veinsmobility 	totalTime 	268
scalar RSUExampleScenario.node[34].veinsmobility 	stopTime 	350
scalar RSUExampleScenario.node[34].veinsmobility 	minSpeed 	0
scalar RSUExampleScenario.node[34].veinsmobility 	maxSpeed 	13.999869006705
scalar RSUExampleScenario.node[34].veinsmobility 	totalDistance 	1964.1902853386
scalar RSUExampleScenario.node[34].veinsmobility 	totalCO2Emission 	521.95356278047
scalar RSUExampleScenario.node[35].veinsmobility 	startTime 	84.4
scalar RSUExampleScenario.node[35].veinsmobility 	totalTime 	265.6
scalar RSUExampleScenario.node[35].veinsmobility 	stopTime 	350
scalar RSUExampleScenario.node[35].veinsmobility 	minSpeed 	0
scalar RSUExampleScenario.node[35].veinsmobility 	maxSpeed 	13.999987391538
scalar RSUExampleScenario.node[35].veinsmobility 	totalDistance 	1930.2693699933
scalar RSUExampleScenario.node[35].veinsmobility 	totalCO2Emission 	518.46127300356
scalar RSUExampleScenario.node[36].veinsmobility 	startTime 	86.8
scalar RSUExampleScenario.node[36].veinsmobility 	totalTime 	263.2
scalar RSUExampleScenario.node[36].veinsmobility 	stopTime 	350
scalar RSUExampleScenario.node[36].veinsmobility 	minSpeed 	0
scalar RSUExampleScenario.node[36].veinsmobility 	maxSpeed 	13.999992135682
scalar RSUExampleScenario.node[36].veinsmobility 	totalDistance 	1897.2454410124
scalar RSUExampleScenario.node[36].veinsmobility 	totalCO2Emission 	514.71109105077
scalar RSUExampleScenario.node[37].veinsmobility 	startTime 	89.2
scalar RSUExampleScenario.node[37].veinsmobility 	totalTime 	260.8
scalar RSUExampleScenario.node[37].veinsmobility 	stopTime 	350
scalar RSUExampleScenario.node[37].veinsmobility 	minSpeed 	0
scalar RSUExampleScenario.node[37].veinsmobility 	maxSpeed 	13.999917857989
scalar RSUExampleScenario.node[37].veinsmobility 	totalDistance 	1862.6940946793
scalar RSUExampleScenario.node[37].veinsmobility 	totalCO2Emission 	506.28716396372
scalar RSUExampleScenario.node[38].veinsmobility 	startTime 	91.6
scalar RSUExampleScenario.node[38].veinsmobility 	totalTime 	258.4
scalar RSUExampleScenario.node[38].veinsmobility 	stopTime 	350
scalar RSUExampleScenario.node[38].veinsmobility 	minSpeed 	0
scalar RSUExampleScenario.node[38].veinsmobility 	maxSpeed 	13.999857775588
scalar RSUExampleScenario.node[38].veinsmobility 	totalDistance 	1829.7220021937
scalar RSUExampleScenario.node[38].veinsmobility 	totalCO2Emission 	500.00009177949
scalar RSUExampleScenario.node[39].veinsmobility 	startTime 	94
scalar RSUExampleScenario.node[39].veinsmobility 	totalTime 	256
scalar RSUExampleScenario.node[39].veinsmobility 	stopTime 	350
scalar RSUExampleScenario.node[39].veinsmobility 	minSpeed 	0
scalar RSUExampleScenario.node[39].veinsmobility 	maxSpeed 	13.999091248678
scalar RSUExampleScenario.node[39].veinsmobility 	totalDistance 	1795.7435939276
scalar RSUExampleScenario.node[39].veinsmobility 	totalCO2Emission 	493.97928483876
scalar RSUExampleScenario.node[4].veinsmobility 	startTime 	9.7
scalar RSUExampleScenario.node[4].veinsmobility 	totalTime 	340.3
scalar RSUExampleScenario.node[4].veinsmobility 	stopTime 	350
scalar RSUExampleScenario.node[4].veinsmobility 	minSpeed 	0
scalar RSUExampleScenario.node[4].veinsmobility 	maxSpeed 	13.999914621131
scalar RSUExampleScenario.node[4].veinsmobility 	totalDistance 	2949.0269857162
scalar RSUExampleScenario.node[4].veinsmobility 	totalCO2Emission 	697.43042418828
scalar RSUExampleScenario.node[40].veinsmobility 	startTime 	96.5
scalar RSUExampleScenario.node[40].veinsmobility 	totalTime 	253.5
scalar RSUExampleScenario.node[40].veinsmobility 	stopTime 	350
scalar RSUExampleScenario.node[40].veinsmobility 	minSpeed 	0
scalar RSUExampleScenario.node[40].veinsmobility 	maxSpeed 	13.999959308237
scalar RSUExampleScenario.node[40].veinsmobility 	totalDistance 	1763.052521747
scalar RSUExampleScenario.node[40].veinsmobility 	totalCO2Emission 	491.05073599946
scalar RSUExampleScenario.node[41].veinsmobility 	startTime 	98.9
scalar RSUExampleScenario.node[41].veinsmobility 	totalTime 	251.1
scalar RSUExampleScenario.node[41].veinsmobility 	stopTime 	350
scalar RSUExampleScenario.node[41].veinsmobility 	minSpeed 	0
scalar RSUExampleScenario.node[41].veinsmobility 	maxSpeed 	13.999740280602
scalar RSUExampleScenario.node[41].veinsmobility 	totalDistance 	1730.0366387214
scalar RSUExampleScenario.node[41].veinsmobility 	totalCO2Emission 	483.98550423105
scalar RSUExampleScenario.node[42].veinsmobility 	startTime 	101.3
scalar RSUExampleScenario.node[42].veinsmobility 	totalTime 	248.7
scalar RSUExampleScenario.node[42].veinsmobility 	stopTime 	350
scalar RSUExampleScenario.node[42].veinsmobility 	minSpeed 	0
scalar RSUExampleScenario.node[42].veinsmobility 	maxSpeed 	13.999907147875
scalar RSUExampleScenario.node[42].veinsmobility 	totalDistance 	1695.4230809917
scalar RSUExampleScenario.node[42].veinsmobility 	totalCO2Emission 	478.94378480335
scalar RSUExampleScenario.node[43].veinsmobility 	startTime 	103.7
scalar RSUExampleScenario.node[43].veinsmobility 	totalTime 	246.3
scalar RSUExampleScenario.node[43].veinsmobility 	stopTime 	350
scalar RSUExampleScenario.node[43].veinsmobility 	minSpeed 	0
scalar RSUExampleScenario.node[43].veinsmobility 	maxSpeed 	13.999979390984
scalar RSUExampleScenario.node[43].veinsmobility 	totalDistance 	1662.5627562566
scalar RSUExampleScenario.node[43].veinsmobility 	totalCO2Emission 	473.71871160432
scalar RSUExampleScenario.node[44].veinsmobility 	startTime 	106.1
scalar RSUExampleScenario.node[44].veinsmobility 	totalTime 	243.9
scalar RSUExampleScenario.node[44].veinsmobility 	stopTime 	350
scalar RSUExampleScenario.node[44].veinsmobility 	minSpeed 	0
scalar RSUExampleScenario.node[44].veinsmobility 	maxSpeed 	13.999950716156
scalar RSUExampleScenario.node[44].veinsmobility 	totalDistance 	1628.728188822
scalar RSUExampleScenario.node[44].veinsmobility 	totalCO2Emission 	468.51810854456
scalar RSUExampleScenario.node[45].veinsmobility 	startTime 	108.5
scalar RSUExampleScenario.node[45].veinsmobility 	totalTime 	241.5
scalar RSUExampleScenario.node[45].veinsmobility 	stopTime 	350
scalar RSUExampleScenario.node[45].veinsmobility 	minSpeed 	0
scalar RSUExampleScenario.node[45].veinsmobility 	maxSpeed 	13.999963956159
scalar RSUExampleScenario.node[45].veinsmobility 	totalDistance 	1596.2652459778
scalar RSUExampleScenario.node[45].veinsmobility 	totalCO2Emission 	464.11661349816
scalar RSUExampleScenario.node[46].veinsmobility 	startTime 	110.9
scalar RSUExampleScenario.node[46].veinsmobility 	totalTime 	239.1
scalar RSUExampleScenario.node[46].veinsmobility 	stopTime 	350
scalar RSUExampleScenario.node[46].veinsmobility 	minSpeed 	0
scalar RSUExampleScenario.node[46].veinsmobility 	maxSpeed 	13.999939593035
scalar RSUExampleScenario.node[46].veinsmobility 	totalDistance 	1562.0386808375
scalar RSUExampleScenario.node[46].veinsmobility 	totalCO2Emission 	455.53578495842
scalar RSUExampleScenario.node[47].veinsmobility 	startTime 	113.3
scalar RSUExampleScenario.node[47].veinsmobility 	totalTime 	236.7
scalar RSUExampleScenario.node[47].veinsmobility 	stopTime 	350
scalar RSUExampleScenario.node[47].veinsmobility 	minSpeed 	0
scalar RSUExampleScenario.node[47].veinsmobility 	maxSpeed 	13.999764727568
scalar RSUExampleScenario.node[47].veinsmobility 	totalDistance 	1528.7384891484
scalar RSUExampleScenario.node[47].veinsmobility 	totalCO2Emission 	451.35208517545
scalar RSUExampleScenario.node[48].veinsmobility 	startTime 	115.7
scalar RSUExampleScenario.node[48].veinsmobility 	totalTime 	234.3
scalar RSUExampleScenario.node[48].veinsmobility 	stopTime 	350
scalar RSUExampleScenario.node[48].veinsmobility 	minSpeed 	0
scalar RSUExampleScenario.node[48].veinsmobility 	maxSpeed 	13.999940641881
scalar RSUExampleScenario.node[48].veinsmobility 	totalDistance 	1494.7584456859
scalar RSUExampleScenario.node[48].veinsmobility 	totalCO2Emission 	443.94275463866
scalar RSUExampleScenario.node[49].veinsmobility 	startTime 	118.1
scalar RSUExampleScenario.node[49].veinsmobility 	totalTime 	231.9
scalar RSUExampleScenario.node[49].veinsmobility 	stopTime 	350
scalar RSUExampleScenario.node[49].veinsmobility 	minSpeed 	0
scalar RSUExampleScenario.node[49].veinsmobility 	maxSpeed 	13.999950629105
scalar RSUExampleScenario.node[49].veinsmobility 	totalDistance 	1462.3111396093
scalar RSUExampleScenario.node[49].veinsmobility 	totalCO2Emission 	439.4291782365
scalar RSUExampleScenario.node[5].veinsmobility 	startTime 	12.1
scalar RSUExampleScenario.node[5].veinsmobility 	totalTime 	337.9
scalar RSUExampleScenario.node[5].veinsmobility 	stopTime 	350
scalar RSUExampleScenario.node[5].veinsmobility 	minSpeed 	0
scalar RSUExampleScenario.node[5].veinsmobility 	maxSpeed 	13.999994591232
scalar RSUExampleScenario.node[5].veinsmobility 	totalDistance 	2913.117921403
scalar RSUExampleScenario.node[5].veinsmobility 	totalCO2Emission 	681.85997582061
scalar RSUExampleScenario.node[50].veinsmobility 	startTime 	120.6
scalar RSUExampleScenario.node[50].veinsmobility 	totalTime 	229.4
scalar RSUExampleScenario.node[50].veinsmobility 	stopTime 	350
scalar RSUExampleScenario.node[50].veinsmobility 	minSpeed 	0
scalar RSUExampleScenario.node[50].veinsmobility 	maxSpeed 	13.999560882384
scalar RSUExampleScenario.node[50].veinsmobility 	totalDistance 	1427.8277760561
scalar RSUExampleScenario.node[50].veinsmobility 	totalCO2Emission 	434.59421310696
scalar RSUExampleScenario.node[51].veinsmobility 	startTime 	123
scalar RSUExampleScenario.node[51].veinsmobility 	totalTime 	227
scalar RSUExampleScenario.node[51].veinsmobility 	stopTime 	350
scalar RSUExampleScenario.node[51].veinsmobility 	minSpeed 	0
scalar RSUExampleScenario.node[51].veinsmobility 	maxSpeed 	13.999706746067
scalar RSUExampleScenario.node[51].veinsmobility 	totalDistance 	1392.5665372956
scalar RSUExampleScenario.node[51].veinsmobility 	totalCO2Emission 	427.68761096329
scalar RSUExampleScenario.node[52].veinsmobility 	startTime 	125.4
scalar RSUExampleScenario.node[52].veinsmobility 	totalTime 	224.6
scalar RSUExampleScenario.node[52].veinsmobility 	stopTime 	350
scalar RSUExampleScenario.node[52].veinsmobility 	minSpeed 	0
scalar RSUExampleScenario.node[52].veinsmobility 	maxSpeed 	13.999809697377
scalar RSUExampleScenario.node[52].veinsmobility 	totalDistance 	1359.4091428372
scalar RSUExampleScenario.node[52].veinsmobility 	totalCO2Emission 	421.68252839142
scalar RSUExampleScenario.node[53].veinsmobility 	startTime 	127.8
scalar RSUExampleScenario.node[53].veinsmobility 	totalTime 	222.2
scalar RSUExampleScenario.node[53].veinsmobility 	stopTime 	350
scalar RSUExampleScenario.node[53].veinsmobility 	minSpeed 	0
scalar RSUExampleScenario.node[53].veinsmobility 	maxSpeed 	13.999999694263
scalar RSUExampleScenario.node[53].veinsmobility 	totalDistance 	1326.7547806689
scalar RSUExampleScenario.node[53].veinsmobility 	totalCO2Emission 	418.27425510086
scalar RSUExampleScenario.node[54].veinsmobility 	startTime 	130.2
scalar RSUExampleScenario.node[54].veinsmobility 	totalTime 	219.8
scalar RSUExampleScenario.node[54].veinsmobility 	stopTime 	350
scalar RSUExampleScenario.node[54].veinsmobility 	minSpeed 	0
scalar RSUExampleScenario.node[54].veinsmobility 	maxSpeed 	13.99999398554
scalar RSUExampleScenario.node[54].veinsmobility 	totalDistance 	1293.0446641001
scalar RSUExampleScenario.node[54].veinsmobility 	totalCO2Emission 	411.99327684593
scalar RSUExampleScenario.node[55].veinsmobility 	startTime 	132.6
scalar RSUExampleScenario.node[55].veinsmobility 	totalTime 	217.4
scalar RSUExampleScenario.node[55].veinsmobility 	stopTime 	350
scalar RSUExampleScenario.node[55].veinsmobility 	minSpeed 	0
scalar RSUExampleScenario.node[55].veinsmobility 	maxSpeed 	13.999785845177
scalar RSUExampleScenario.node[55].veinsmobility 	totalDistance 	1259.1076039438
scalar RSUExampleScenario.node[55].veinsmobility 	totalCO2Emission 	406.87820794159
scalar RSUExampleScenario.node[56].veinsmobility 	startTime 	135
scalar RSUExampleScenario.node[56].veinsmobility 	totalTime 	215
scalar RSUExampleScenario.node[56].veinsmobility 	stopTime 	350
scalar RSUExampleScenario.node[56].veinsmobility 	minSpeed 	0
scalar RSUExampleScenario.node[56].veinsmobility 	maxSpeed 	13.999951646926
scalar RSUExampleScenario.node[56].veinsmobility 	totalDistance 	1226.1041396775
scalar RSUExampleScenario.node[56].veinsmobility 	totalCO2Emission 	401.88932421586
scalar RSUExampleScenario.node[57].veinsmobility 	startTime 	137.4
scalar RSUExampleScenario.node[57].veinsmobility 	totalTime 	212.6
scalar RSUExampleScenario.node[57].veinsmobility 	stopTime 	350
scalar RSUExampleScenario.node[57].veinsmobility 	minSpeed 	0
scalar RSUExampleScenario.node[57].veinsmobility 	maxSpeed 	13.99998007731
scalar RSUExampleScenario.node[57].veinsmobility 	totalDistance 	1192.7745384142
scalar RSUExampleScenario.node[57].veinsmobility 	totalCO2Emission 	393.34294100284
scalar RSUExampleScenario.node[58].veinsmobility 	startTime 	139.8
scalar RSUExampleScenario.node[58].veinsmobility 	totalTime 	210.2
scalar RSUExampleScenario.node[58].veinsmobility 	stopTime 	350
scalar RSUExampleScenario.node[58].veinsmobility 	minSpeed 	0
scalar RSUExampleScenario.node[58].veinsmobility 	maxSpeed 	13.999744796192
scalar RSUExampleScenario.node[58].veinsmobility 	totalDistance 	1159.1795589268
scalar RSUExampleScenario.node[58].veinsmobility 	totalCO2Emission 	387.91320558422
scalar RSUExampleScenario.node[59].veinsmobility 	startTime 	142.2
scalar RSUExampleScenario.node[59].veinsmobility 	totalTime 	207.8
scalar RSUExampleScenario.node[59].veinsmobility 	stopTime 	350
scalar RSUExampleScenario.node[59].veinsmobility 	minSpeed 	0
scalar RSUExampleScenario.node[59].veinsmobility 	maxSpeed 	13.99947564193
scalar RSUExampleScenario.node[59].veinsmobility 	totalDistance 	1125.7240409439
scalar RSUExampleScenario.node[59].veinsmobility 	totalCO2Emission 	383.17235145197
scalar RSUExampleScenario.node[6].veinsmobility 	startTime 	14.5
scalar RSUExampleScenario.node[6].veinsmobility 	totalTime 	335.5
scalar RSUExampleScenario.node[6].veinsmobility 	stopTime 	350
scalar RSUExampleScenario.node[6].veinsmobility 	minSpeed 	0
scalar RSUExampleScenario.node[6].veinsmobility 	maxSpeed 	13.999893460451
scalar RSUExampleScenario.node[6].veinsmobility 	totalDistance 	2905.0867851996
scalar RSUExampleScenario.node[6].veinsmobility 	totalCO2Emission 	681.66113118502
scalar RSUExampleScenario.node[60].veinsmobility 	startTime 	144.7
scalar RSUExampleScenario.node[60].veinsmobility 	totalTime 	205.3
scalar RSUExampleScenario.node[60].veinsmobility 	stopTime 	350
scalar RSUExampleScenario.node[60].veinsmobility 	minSpeed 	0
scalar RSUExampleScenario.node[60].veinsmobility 	maxSpeed 	13.999714127793
scalar RSUExampleScenario.node[60].veinsmobility 	totalDistance 	1091.8822628588
scalar RSUExampleScenario.node[60].veinsmobility 	totalCO2Emission 	376.31719972305
scalar RSUExampleScenario.node[61].veinsmobility 	startTime 	147.1
scalar RSUExampleScenario.node[61].veinsmobility 	totalTime 	202.9
scalar RSUExampleScenario.node[61].veinsmobility 	stopTime 	350
scalar RSUExampleScenario.node[61].veinsmobility 	minSpeed 	0
scalar RSUExampleScenario.node[61].veinsmobility 	maxSpeed 	13.999375193026
scalar RSUExampleScenario.node[61].veinsmobility 	totalDistance 	1058.1093811275
scalar RSUExampleScenario.node[61].veinsmobility 	totalCO2Emission 	371.82797298745
scalar RSUExampleScenario.node[62].veinsmobility 	startTime 	149.5
scalar RSUExampleScenario.node[62].veinsmobility 	totalTime 	200.5
scalar RSUExampleScenario.node[62].veinsmobility 	stopTime 	350
scalar RSUExampleScenario.node[62].veinsmobility 	minSpeed 	0
scalar RSUExampleScenario.node[62].veinsmobility 	maxSpeed 	13.999962297594
scalar RSUExampleScenario.node[62].veinsmobility 	totalDistance 	1024.0793251863
scalar RSUExampleScenario.node[62].veinsmobility 	totalCO2Emission 	366.13148102592
scalar RSUExampleScenario.node[63].veinsmobility 	startTime 	151.9
scalar RSUExampleScenario.node[63].veinsmobility 	totalTime 	198.1
scalar RSUExampleScenario.node[63].veinsmobility 	stopTime 	350
scalar RSUExampleScenario.node[63].veinsmobility 	minSpeed 	0
scalar RSUExampleScenario.node[63].veinsmobility 	maxSpeed 	13.999681676186
scalar RSUExampleScenario.node[63].veinsmobility 	totalDistance 	984.60689507534
scalar RSUExampleScenario.node[63].veinsmobility 	totalCO2Emission 	353.58363716168
scalar RSUExampleScenario.node[64].veinsmobility 	startTime 	154.3
scalar RSUExampleScenario.node[64].veinsmobility 	totalTime 	195.7
scalar RSUExampleScenario.node[64].veinsmobility 	stopTime 	350
scalar RSUExampleScenario.node[64].veinsmobility 	minSpeed 	0
scalar RSUExampleScenario.node[64].veinsmobility 	maxSpeed 	13.999786129484
scalar RSUExampleScenario.node[64].veinsmobility 	totalDistance 	953.66495776629
scalar RSUExampleScenario.node[64].veinsmobility 	totalCO2Emission 	337.75158393218
scalar RSUExampleScenario.node[65].veinsmobility 	startTime 	156.7
scalar RSUExampleScenario.node[65].veinsmobility 	totalTime 	193.3
scalar RSUExampleScenario.node[65].veinsmobility 	stopTime 	350
scalar RSUExampleScenario.node[65].veinsmobility 	minSpeed 	0
scalar RSUExampleScenario.node[65].veinsmobility 	maxSpeed 	13.999265819304
scalar RSUExampleScenario.node[65].veinsmobility 	totalDistance 	940.2806139965
scalar RSUExampleScenario.node[65].veinsmobility 	totalCO2Emission 	332.5907814738
scalar RSUExampleScenario.node[66].veinsmobility 	startTime 	159.1
scalar RSUExampleScenario.node[66].veinsmobility 	totalTime 	190.9
scalar RSUExampleScenario.node[66].veinsmobility 	stopTime 	350
scalar RSUExampleScenario.node[66].veinsmobility 	minSpeed 	0
scalar RSUExampleScenario.node[66].veinsmobility 	maxSpeed 	13.999953858305
scalar RSUExampleScenario.node[66].veinsmobility 	totalDistance 	927.8449545661
scalar RSUExampleScenario.node[66].veinsmobility 	totalCO2Emission 	328.3023476818
scalar RSUExampleScenario.node[67].veinsmobility 	startTime 	161.5
scalar RSUExampleScenario.node[67].veinsmobility 	totalTime 	188.5
scalar RSUExampleScenario.node[67].veinsmobility 	stopTime 	350
scalar RSUExampleScenario.node[67].veinsmobility 	minSpeed 	0
scalar RSUExampleScenario.node[67].veinsmobility 	maxSpeed 	13.99962341513
scalar RSUExampleScenario.node[67].veinsmobility 	totalDistance 	912.58703978228
scalar RSUExampleScenario.node[67].veinsmobility 	totalCO2Emission 	324.36966304679
scalar RSUExampleScenario.node[68].veinsmobility 	startTime 	163.9
scalar RSUExampleScenario.node[68].veinsmobility 	totalTime 	186.1
scalar RSUExampleScenario.node[68].veinsmobility 	stopTime 	350
scalar RSUExampleScenario.node[68].veinsmobility 	minSpeed 	0
scalar RSUExampleScenario.node[68].veinsmobility 	maxSpeed 	13.999322452275
scalar RSUExampleScenario.node[68].veinsmobility 	totalDistance 	892.48175412893
scalar RSUExampleScenario.node[68].veinsmobility 	totalCO2Emission 	322.6824845657
scalar RSUExampleScenario.node[69].veinsmobility 	startTime 	166.3
scalar RSUExampleScenario.node[69].veinsmobility 	totalTime 	183.7
scalar RSUExampleScenario.node[69].veinsmobility 	stopTime 	350
scalar RSUExampleScenario.node[69].veinsmobility 	minSpeed 	0
scalar RSUExampleScenario.node[69].veinsmobility 	maxSpeed 	13.999643062956
scalar RSUExampleScenario.node[69].veinsmobility 	totalDistance 	858.02118209142
scalar RSUExampleScenario.node[69].veinsmobility 	totalCO2Emission 	316.69992256399
scalar RSUExampleScenario.node[7].veinsmobility 	startTime 	16.9
scalar RSUExampleScenario.node[7].veinsmobility 	totalTime 	333.1
scalar RSUExampleScenario.node[7].veinsmobility 	stopTime 	350
scalar RSUExampleScenario.node[7].veinsmobility 	minSpeed 	0
scalar RSUExampleScenario.node[7].veinsmobility 	maxSpeed 	13.999824159511
scalar RSUExampleScenario.node[7].veinsmobility 	totalDistance 	2884.6484907763
scalar RSUExampleScenario.node[7].veinsmobility 	totalCO2Emission 	675.92069869764
scalar RSUExampleScenario.node[70].veinsmobility 	startTime 	168.8
scalar RSUExampleScenario.node[70].veinsmobility 	totalTime 	181.2
scalar RSUExampleScenario.node[70].veinsmobility 	stopTime 	350
scalar RSUExampleScenario.node[70].veinsmobility 	minSpeed 	0
scalar RSUExampleScenario.node[70].veinsmobility 	maxSpeed 	13.999570427604
scalar RSUExampleScenario.node[70].veinsmobility 	totalDistance 	824.61285881685
scalar RSUExampleScenario.node[70].veinsmobility 	totalCO2Emission 	310.2515598256
scalar RSUExampleScenario.node[71].veinsmobility 	startTime 	171.2
scalar RSUExampleScenario.node[71].veinsmobility 	totalTime 	178.8
scalar RSUExampleScenario.node[71].veinsmobility 	stopTime 	350
scalar RSUExampleScenario.node[71].veinsmobility 	minSpeed 	0
scalar RSUExampleScenario.node[71].veinsmobility 	maxSpeed 	13.999889957355
scalar RSUExampleScenario.node[71].veinsmobility 	totalDistance 	792.16802865691
scalar RSUExampleScenario.node[71].veinsmobility 	totalCO2Emission 	303.97265835487
scalar RSUExampleScenario.node[72].veinsmobility 	startTime 	173.6
scalar RSUExampleScenario.node[72].veinsmobility 	totalTime 	176.4
scalar RSUExampleScenario.node[72].veinsmobility 	stopTime 	350
scalar RSUExampleScenario.node[72].veinsmobility 	minSpeed 	0
scalar RSUExampleScenario.node[72].veinsmobility 	maxSpeed 	13.998781369873
scalar RSUExampleScenario.node[72].veinsmobility 	totalDistance 	758.17947545405
scalar RSUExampleScenario.node[72].veinsmobility 	totalCO2Emission 	298.18305819359
scalar RSUExampleScenario.node[73].veinsmobility 	startTime 	176
scalar RSUExampleScenario.node[73].veinsmobility 	totalTime 	174
scalar RSUExampleScenario.node[73].veinsmobility 	stopTime 	350
scalar RSUExampleScenario.node[73].veinsmobility 	minSpeed 	0
scalar RSUExampleScenario.node[73].veinsmobility 	maxSpeed 	13.999912989081
scalar RSUExampleScenario.node[73].veinsmobility 	totalDistance 	724.70941725199
scalar RSUExampleScenario.node[73].veinsmobility 	totalCO2Emission 	291.88923685562
scalar RSUExampleScenario.node[74].veinsmobility 	startTime 	178.4
scalar RSUExampleScenario.node[74].veinsmobility 	totalTime 	171.6
scalar RSUExampleScenario.node[74].veinsmobility 	stopTime 	350
scalar RSUExampleScenario.node[74].veinsmobility 	minSpeed 	0
scalar RSUExampleScenario.node[74].veinsmobility 	maxSpeed 	13.999569005251
scalar RSUExampleScenario.node[74].veinsmobility 	totalDistance 	691.07167393695
scalar RSUExampleScenario.node[74].veinsmobility 	totalCO2Emission 	288.10403264553
scalar RSUExampleScenario.node[75].veinsmobility 	startTime 	180.8
scalar RSUExampleScenario.node[75].veinsmobility 	totalTime 	169.2
scalar RSUExampleScenario.node[75].veinsmobility 	stopTime 	350
scalar RSUExampleScenario.node[75].veinsmobility 	minSpeed 	0
scalar RSUExampleScenario.node[75].veinsmobility 	maxSpeed 	13.999493377274
scalar RSUExampleScenario.node[75].veinsmobility 	totalDistance 	658.49273138984
scalar RSUExampleScenario.node[75].veinsmobility 	totalCO2Emission 	282.09014019738
scalar RSUExampleScenario.node[76].veinsmobility 	startTime 	183.2
scalar RSUExampleScenario.node[76].veinsmobility 	totalTime 	166.8
scalar RSUExampleScenario.node[76].veinsmobility 	stopTime 	350
scalar RSUExampleScenario.node[76].veinsmobility 	minSpeed 	0
scalar RSUExampleScenario.node[76].veinsmobility 	maxSpeed 	13.999337201349
scalar RSUExampleScenario.node[76].veinsmobility 	totalDistance 	623.92636742364
scalar RSUExampleScenario.node[76].veinsmobility 	totalCO2Emission 	276.17712705405
scalar RSUExampleScenario.node[77].veinsmobility 	startTime 	185.6
scalar RSUExampleScenario.node[77].veinsmobility 	totalTime 	164.4
scalar RSUExampleScenario.node[77].veinsmobility 	stopTime 	350
scalar RSUExampleScenario.node[77].veinsmobility 	minSpeed 	0
scalar RSUExampleScenario.node[77].veinsmobility 	maxSpeed 	13.99972197165
scalar RSUExampleScenario.node[77].veinsmobility 	totalDistance 	591.14781909087
scalar RSUExampleScenario.node[77].veinsmobility 	totalCO2Emission 	269.97194690495
scalar RSUExampleScenario.node[78].veinsmobility 	startTime 	188
scalar RSUExampleScenario.node[78].veinsmobility 	totalTime 	162
scalar RSUExampleScenario.node[78].veinsmobility 	stopTime 	350
scalar RSUExampleScenario.node[78].veinsmobility 	minSpeed 	0
scalar RSUExampleScenario.node[78].veinsmobility 	maxSpeed 	13.999593984752
scalar RSUExampleScenario.node[78].veinsmobility 	totalDistance 	557.83185902286
scalar RSUExampleScenario.node[78].veinsmobility 	totalCO2Emission 	265.6628354516
scalar RSUExampleScenario.node[79].veinsmobility 	startTime 	190.4
scalar RSUExampleScenario.node[79].veinsmobility 	totalTime 	159.6
scalar RSUExampleScenario.node[79].veinsmobility 	stopTime 	350
scalar RSUExampleScenario.node[79].veinsmobility 	minSpeed 	0
scalar RSUExampleScenario.node[79].veinsmobility 	maxSpeed 	13.999881302104
scalar RSUExampleScenario.node[79].veinsmobility 	totalDistance 	524.67037633698
scalar RSUExampleScenario.node[79].veinsmobility 	totalCO2Emission 	259.22196206716
scalar RSUExampleScenario.node[8].veinsmobility 	startTime 	19.3
scalar RSUExampleScenario.node[8].veinsmobility 	totalTime 	330.7
scalar RSUExampleScenario.node[8].veinsmobility 	stopTime 	350
scalar RSUExampleScenario.node[8].veinsmobility 	minSpeed 	0
scalar RSUExampleScenario.node[8].veinsmobility 	maxSpeed 	13.999938482866
scalar RSUExampleScenario.node[8].veinsmobility 	totalDistance 	2862.378935408
scalar RSUExampleScenario.node[8].veinsmobility 	totalCO2Emission 	677.03270624301
scalar RSUExampleScenario.node[80].veinsmobility 	startTime 	192.9
scalar RSUExampleScenario.node[80].veinsmobility 	totalTime 	157.1
scalar RSUExampleScenario.node[80].veinsmobility 	stopTime 	350
scalar RSUExampleScenario.node[80].veinsmobility 	minSpeed 	0
scalar RSUExampleScenario.node[80].veinsmobility 	maxSpeed 	13.999892744129
scalar RSUExampleScenario.node[80].veinsmobility 	totalDistance 	489.95579492395
scalar RSUExampleScenario.node[80].veinsmobility 	totalCO2Emission 	253.47152785239
scalar RSUExampleScenario.node[81].veinsmobility 	startTime 	195.3
scalar RSUExampleScenario.node[81].veinsmobility 	totalTime 	154.7
scalar RSUExampleScenario.node[81].veinsmobility 	stopTime 	350
scalar RSUExampleScenario.node[81].veinsmobility 	minSpeed 	0
scalar RSUExampleScenario.node[81].veinsmobility 	maxSpeed 	13.999861915854
scalar RSUExampleScenario.node[81].veinsmobility 	totalDistance 	458.06823701501
scalar RSUExampleScenario.node[81].veinsmobility 	totalCO2Emission 	248.019560781
scalar RSUExampleScenario.node[82].veinsmobility 	startTime 	197.7
scalar RSUExampleScenario.node[82].veinsmobility 	totalTime 	152.3
scalar RSUExampleScenario.node[82].veinsmobility 	stopTime 	350
scalar RSUExampleScenario.node[82].veinsmobility 	minSpeed 	0
scalar RSUExampleScenario.node[82].veinsmobility 	maxSpeed 	13.998624197708
scalar RSUExampleScenario.node[82].veinsmobility 	totalDistance 	423.85809783637
scalar RSUExampleScenario.node[82].veinsmobility 	totalCO2Emission 	243.03566507937
scalar RSUExampleScenario.node[83].veinsmobility 	startTime 	200.1
scalar RSUExampleScenario.node[83].veinsmobility 	totalTime 	149.9
scalar RSUExampleScenario.node[83].veinsmobility 	stopTime 	350
scalar RSUExampleScenario.node[83].veinsmobility 	minSpeed 	0
scalar RSUExampleScenario.node[83].veinsmobility 	maxSpeed 	13.999325927827
scalar RSUExampleScenario.node[83].veinsmobility 	totalDistance 	391.04537172271
scalar RSUExampleScenario.node[83].veinsmobility 	totalCO2Emission 	237.30872154326
scalar RSUExampleScenario.node[84].veinsmobility 	startTime 	202.5
scalar RSUExampleScenario.node[84].veinsmobility 	totalTime 	147.5
scalar RSUExampleScenario.node[84].veinsmobility 	stopTime 	350
scalar RSUExampleScenario.node[84].veinsmobility 	minSpeed 	0
scalar RSUExampleScenario.node[84].veinsmobility 	maxSpeed 	13.997930174847
scalar RSUExampleScenario.node[84].veinsmobility 	totalDistance 	357.62017485015
scalar RSUExampleScenario.node[84].veinsmobility 	totalCO2Emission 	230.70965710152
scalar RSUExampleScenario.node[85].veinsmobility 	startTime 	204.9
scalar RSUExampleScenario.node[85].veinsmobility 	totalTime 	145.1
scalar RSUExampleScenario.node[85].veinsmobility 	stopTime 	350
scalar RSUExampleScenario.node[85].veinsmobility 	minSpeed 	0
scalar RSUExampleScenario.node[85].veinsmobility 	maxSpeed 	13.979142487089
scalar RSUExampleScenario.node[85].veinsmobility 	totalDistance 	324.40038340572
scalar RSUExampleScenario.node[85].veinsmobility 	totalCO2Emission 	226.04561692678
scalar RSUExampleScenario.node[86].veinsmobility 	startTime 	207.3
scalar RSUExampleScenario.node[86].veinsmobility 	totalTime 	142.7
scalar RSUExampleScenario.node[86].veinsmobility 	stopTime 	350
scalar RSUExampleScenario.node[86].veinsmobility 	minSpeed 	0
scalar RSUExampleScenario.node[86].veinsmobility 	maxSpeed 	13.912217304246
scalar RSUExampleScenario.node[86].veinsmobility 	totalDistance 	290.82632777347
scalar RSUExampleScenario.node[86].veinsmobility 	totalCO2Emission 	219.49365694031
scalar RSUExampleScenario.node[87].veinsmobility 	startTime 	209.7
scalar RSUExampleScenario.node[87].veinsmobility 	totalTime 	140.3
scalar RSUExampleScenario.node[87].veinsmobility 	stopTime 	350
scalar RSUExampleScenario.node[87].veinsmobility 	minSpeed 	0
scalar RSUExampleScenario.node[87].veinsmobility 	maxSpeed 	13.85628029984
scalar RSUExampleScenario.node[87].veinsmobility 	totalDistance 	250.54243325656
scalar RSUExampleScenario.node[87].veinsmobility 	totalCO2Emission 	202.85345865485
scalar RSUExampleScenario.node[88].veinsmobility 	startTime 	212.1
scalar RSUExampleScenario.node[88].veinsmobility 	totalTime 	137.9
scalar RSUExampleScenario.node[88].veinsmobility 	stopTime 	350
sc