version 2
run statistic4-168-20150324-12:27:01-9740
attr c 8
attr configname statistic4
attr datetime 20150324-12:27:01
attr experiment statistic4
attr inifile omnetpp.ini
attr iterationvars "$p=1/8, $c=8"
attr iterationvars2 "$p=1/8, $c=8, $repetition=68"
attr measurement "$p=1/8, $c=8"
attr network RSUExampleScenario
attr p 1/8
attr processid 9740
attr repetition 68
attr replication #68
attr resultdir results
attr runnumber 168
attr seedset 168

scalar . 	c 	8
scalar RSUExampleScenario.rsu[0].appl 	NumberofCH 	12
scalar RSUExampleScenario.rsu[0].appl 	NumberofON 	73
scalar RSUExampleScenario.rsu[0].appl 	NumberofFN 	15
scalar RSUExampleScenario.rsu[0].appl 	meanClusterNodes 	6.0833333333333
scalar RSUExampleScenario.rsu[0].appl 	varClusterNodes 	2.8124228384477
scalar RSUExampleScenario.rsu[0].appl 	sumCHutility 	449.79705861087
scalar RSUExampleScenario.rsu[0].appl 	meanCHutility 	37.483088217573
scalar RSUExampleScenario.rsu[0].appl 	varCHutility 	2.1367123889981
scalar RSUExampleScenario.rsu[0].appl 	sumDiffCHutility 	-43.533373713322
scalar RSUExampleScenario.rsu[0].appl 	meanDiffCHutility 	-3.6277811427768
scalar RSUExampleScenario.rsu[0].appl 	varDiffCHutility 	2.2843177241383
scalar RSUExampleScenario.rsu[0].appl 	expectedCHutility 	406.26368489755
scalar RSUExampleScenario.rsu[0].appl 	meanExpectedCHutility 	33.855307074796
scalar RSUExampleScenario.rsu[0].appl 	varExpectedCHutility 	0.64878573887161
scalar RSUExampleScenario.node[0].veinsmobility 	startTime 	0.1
scalar RSUExampleScenario.node[0].veinsmobility 	totalTime 	349.9
scalar RSUExampleScenario.node[0].veinsmobility 	stopTime 	350
scalar RSUExampleScenario.node[0].veinsmobility 	minSpeed 	0
scalar RSUExampleScenario.node[0].veinsmobility 	maxSpeed 	13.999975021619
scalar RSUExampleScenario.node[0].veinsmobility 	totalDistance 	3130.2855364245
scalar RSUExampleScenario.node[0].veinsmobility 	totalCO2Emission 	742.75629822762
scalar RSUExampleScenario.node[1].veinsmobility 	startTime 	2.5
scalar RSUExampleScenario.node[1].veinsmobility 	totalTime 	347.5
scalar RSUExampleScenario.node[1].veinsmobility 	stopTime 	350
scalar RSUExampleScenario.node[1].veinsmobility 	minSpeed 	0
scalar RSUExampleScenario.node[1].veinsmobility 	maxSpeed 	13.999916864019
scalar RSUExampleScenario.node[1].veinsmobility 	totalDistance 	3077.7693075889
scalar RSUExampleScenario.node[1].veinsmobility 	totalCO2Emission 	730.73398249649
scalar RSUExampleScenario.node[10].veinsmobility 	startTime 	24.2
scalar RSUExampleScenario.node[10].veinsmobility 	totalTime 	325.8
scalar RSUExampleScenario.node[10].veinsmobility 	stopTime 	350
scalar RSUExampleScenario.node[10].veinsmobility 	minSpeed 	0
scalar RSUExampleScenario.node[10].veinsmobility 	maxSpeed 	13.999763967327
scalar RSUExampleScenario.node[10].veinsmobility 	totalDistance 	2795.252149865
scalar RSUExampleScenario.node[10].veinsmobility 	totalCO2Emission 	659.56022549082
scalar RSUExampleScenario.node[11].veinsmobility 	startTime 	26.6
scalar RSUExampleScenario.node[11].veinsmobility 	totalTime 	323.4
scalar RSUExampleScenario.node[11].veinsmobility 	stopTime 	350
scalar RSUExampleScenario.node[11].veinsmobility 	minSpeed 	0
scalar RSUExampleScenario.node[11].veinsmobility 	maxSpeed 	13.999883411056
scalar RSUExampleScenario.node[11].veinsmobility 	totalDistance 	2753.7307810173
scalar RSUExampleScenario.node[11].veinsmobility 	totalCO2Emission 	656.55257294971
scalar RSUExampleScenario.node[12].veinsmobility 	startTime 	29
scalar RSUExampleScenario.node[12].veinsmobility 	totalTime 	321
scalar RSUExampleScenario.node[12].veinsmobility 	stopTime 	350
scalar RSUExampleScenario.node[12].veinsmobility 	minSpeed 	0
scalar RSUExampleScenario.node[12].veinsmobility 	maxSpeed 	13.999866403204
scalar RSUExampleScenario.node[12].veinsmobility 	totalDistance 	2723.4032065965
scalar RSUExampleScenario.node[12].veinsmobility 	totalCO2Emission 	650.03265711622
scalar RSUExampleScenario.node[13].veinsmobility 	startTime 	31.4
scalar RSUExampleScenario.node[13].veinsmobility 	totalTime 	318.6
scalar RSUExampleScenario.node[13].veinsmobility 	stopTime 	350
scalar RSUExampleScenario.node[13].veinsmobility 	minSpeed 	0
scalar RSUExampleScenario.node[13].veinsmobility 	maxSpeed 	13.999980500094
scalar RSUExampleScenario.node[13].veinsmobility 	totalDistance 	2680.6548248848
scalar RSUExampleScenario.node[13].veinsmobility 	totalCO2Emission 	642.23844275342
scalar RSUExampleScenario.node[14].veinsmobility 	startTime 	33.8
scalar RSUExampleScenario.node[14].veinsmobility 	totalTime 	316.2
scalar RSUExampleScenario.node[14].veinsmobility 	stopTime 	350
scalar RSUExampleScenario.node[14].veinsmobility 	minSpeed 	0
scalar RSUExampleScenario.node[14].veinsmobility 	maxSpeed 	13.999936777507
scalar RSUExampleScenario.node[14].veinsmobility 	totalDistance 	2654.5945275497
scalar RSUExampleScenario.node[14].veinsmobility 	totalCO2Emission 	640.72514372995
scalar RSUExampleScenario.node[15].veinsmobility 	startTime 	36.2
scalar RSUExampleScenario.node[15].veinsmobility 	totalTime 	313.8
scalar RSUExampleScenario.node[15].veinsmobility 	stopTime 	350
scalar RSUExampleScenario.node[15].veinsmobility 	minSpeed 	0
scalar RSUExampleScenario.node[15].veinsmobility 	maxSpeed 	13.999973459851
scalar RSUExampleScenario.node[15].veinsmobility 	totalDistance 	2614.7002708906
scalar RSUExampleScenario.node[15].veinsmobility 	totalCO2Emission 	633.90491773855
scalar RSUExampleScenario.node[16].veinsmobility 	startTime 	38.6
scalar RSUExampleScenario.node[16].veinsmobility 	totalTime 	311.4
scalar RSUExampleScenario.node[16].veinsmobility 	stopTime 	350
scalar RSUExampleScenario.node[16].veinsmobility 	minSpeed 	0
scalar RSUExampleScenario.node[16].veinsmobility 	maxSpeed 	13.999896535738
scalar RSUExampleScenario.node[16].veinsmobility 	totalDistance 	2582.6885144178
scalar RSUExampleScenario.node[16].veinsmobility 	totalCO2Emission 	626.0288288741
scalar RSUExampleScenario.node[17].veinsmobility 	startTime 	41
scalar RSUExampleScenario.node[17].veinsmobility 	totalTime 	309
scalar RSUExampleScenario.node[17].veinsmobility 	stopTime 	350
scalar RSUExampleScenario.node[17].veinsmobility 	minSpeed 	0
scalar RSUExampleScenario.node[17].veinsmobility 	maxSpeed 	13.999880188939
scalar RSUExampleScenario.node[17].veinsmobility 	totalDistance 	2539.039165957
scalar RSUExampleScenario.node[17].veinsmobility 	totalCO2Emission 	621.20309641294
scalar RSUExampleScenario.node[18].veinsmobility 	startTime 	43.4
scalar RSUExampleScenario.node[18].veinsmobility 	totalTime 	306.6
scalar RSUExampleScenario.node[18].veinsmobility 	stopTime 	350
scalar RSUExampleScenario.node[18].veinsmobility 	minSpeed 	0
scalar RSUExampleScenario.node[18].veinsmobility 	maxSpeed 	13.999863624694
scalar RSUExampleScenario.node[18].veinsmobility 	totalDistance 	2509.986538934
scalar RSUExampleScenario.node[18].veinsmobility 	totalCO2Emission 	612.80310699227
scalar RSUExampleScenario.node[19].veinsmobility 	startTime 	45.8
scalar RSUExampleScenario.node[19].veinsmobility 	totalTime 	304.2
scalar RSUExampleScenario.node[19].veinsmobility 	stopTime 	350
scalar RSUExampleScenario.node[19].veinsmobility 	minSpeed 	0
scalar RSUExampleScenario.node[19].veinsmobility 	maxSpeed 	13.999843695648
scalar RSUExampleScenario.node[19].veinsmobility 	totalDistance 	2471.9794432011
scalar RSUExampleScenario.node[19].veinsmobility 	totalCO2Emission 	608.99235101106
scalar RSUExampleScenario.node[2].veinsmobility 	startTime 	4.9
scalar RSUExampleScenario.node[2].veinsmobility 	totalTime 	345.1
scalar RSUExampleScenario.node[2].veinsmobility 	stopTime 	350
scalar RSUExampleScenario.node[2].veinsmobility 	minSpeed 	0
scalar RSUExampleScenario.node[2].veinsmobility 	maxSpeed 	13.999979806775
scalar RSUExampleScenario.node[2].veinsmobility 	totalDistance 	3036.3904370622
scalar RSUExampleScenario.node[2].veinsmobility 	totalCO2Emission 	727.10009323673
scalar RSUExampleScenario.node[20].veinsmobility 	startTime 	48.3
scalar RSUExampleScenario.node[20].veinsmobility 	totalTime 	301.7
scalar RSUExampleScenario.node[20].veinsmobility 	stopTime 	350
scalar RSUExampleScenario.node[20].veinsmobility 	minSpeed 	0
scalar RSUExampleScenario.node[20].veinsmobility 	maxSpeed 	13.999829466396
scalar RSUExampleScenario.node[20].veinsmobility 	totalDistance 	2443.3712625626
scalar RSUExampleScenario.node[20].veinsmobility 	totalCO2Emission 	602.90527032462
scalar RSUExampleScenario.node[21].veinsmobility 	startTime 	50.7
scalar RSUExampleScenario.node[21].veinsmobility 	totalTime 	299.3
scalar RSUExampleScenario.node[21].veinsmobility 	stopTime 	350
scalar RSUExampleScenario.node[21].veinsmobility 	minSpeed 	0
scalar RSUExampleScenario.node[21].veinsmobility 	maxSpeed 	13.999971581723
scalar RSUExampleScenario.node[21].veinsmobility 	totalDistance 	2403.4795479311
scalar RSUExampleScenario.node[21].veinsmobility 	totalCO2Emission 	598.37179345635
scalar RSUExampleScenario.node[22].veinsmobility 	startTime 	53.1
scalar RSUExampleScenario.node[22].veinsmobility 	totalTime 	296.9
scalar RSUExampleScenario.node[22].veinsmobility 	stopTime 	350
scalar RSUExampleScenario.node[22].veinsmobility 	minSpeed 	0
scalar RSUExampleScenario.node[22].veinsmobility 	maxSpeed 	13.999955746362
scalar RSUExampleScenario.node[22].veinsmobility 	totalDistance 	2374.1740479313
scalar RSUExampleScenario.node[22].veinsmobility 	totalCO2Emission 	589.80471186252
scalar RSUExampleScenario.node[23].veinsmobility 	startTime 	55.5
scalar RSUExampleScenario.node[23].veinsmobility 	totalTime 	294.5
scalar RSUExampleScenario.node[23].veinsmobility 	stopTime 	350
scalar RSUExampleScenario.node[23].veinsmobility 	minSpeed 	0
scalar RSUExampleScenario.node[23].veinsmobility 	maxSpeed 	13.999966845752
scalar RSUExampleScenario.node[23].veinsmobility 	totalDistance 	2335.1764866274
scalar RSUExampleScenario.node[23].veinsmobility 	totalCO2Emission 	589.70198109204
scalar RSUExampleScenario.node[24].veinsmobility 	startTime 	57.9
scalar RSUExampleScenario.node[24].veinsmobility 	totalTime 	292.1
scalar RSUExampleScenario.node[24].veinsmobility 	stopTime 	350
scalar RSUExampleScenario.node[24].veinsmobility 	minSpeed 	0
scalar RSUExampleScenario.node[24].veinsmobility 	maxSpeed 	13.999963665102
scalar RSUExampleScenario.node[24].veinsmobility 	totalDistance 	2306.958689537
scalar RSUExampleScenario.node[24].veinsmobility 	totalCO2Emission 	580.59606567991
scalar RSUExampleScenario.node[25].veinsmobility 	startTime 	60.3
scalar RSUExampleScenario.node[25].veinsmobility 	totalTime 	289.7
scalar RSUExampleScenario.node[25].veinsmobility 	stopTime 	350
scalar RSUExampleScenario.node[25].veinsmobility 	minSpeed 	0
scalar RSUExampleScenario.node[25].veinsmobility 	maxSpeed 	13.999928171956
scalar RSUExampleScenario.node[25].veinsmobility 	totalDistance 	2267.5677609834
scalar RSUExampleScenario.node[25].veinsmobility 	totalCO2Emission 	573.26473240558
scalar RSUExampleScenario.node[26].veinsmobility 	startTime 	62.7
scalar RSUExampleScenario.node[26].veinsmobility 	totalTime 	287.3
scalar RSUExampleScenario.node[26].veinsmobility 	stopTime 	350
scalar RSUExampleScenario.node[26].veinsmobility 	minSpeed 	0
scalar RSUExampleScenario.node[26].veinsmobility 	maxSpeed 	13.99954320567
scalar RSUExampleScenario.node[26].veinsmobility 	totalDistance 	2239.3646459108
scalar RSUExampleScenario.node[26].veinsmobility 	totalCO2Emission 	569.0103088081
scalar RSUExampleScenario.node[27].veinsmobility 	startTime 	65.1
scalar RSUExampleScenario.node[27].veinsmobility 	totalTime 	284.9
scalar RSUExampleScenario.node[27].veinsmobility 	stopTime 	350
scalar RSUExampleScenario.node[27].veinsmobility 	minSpeed 	0
scalar RSUExampleScenario.node[27].veinsmobility 	maxSpeed 	13.999808611786
scalar RSUExampleScenario.node[27].veinsmobility 	totalDistance 	2202.5957530592
scalar RSUExampleScenario.node[27].veinsmobility 	totalCO2Emission 	563.79107907569
scalar RSUExampleScenario.node[28].veinsmobility 	startTime 	67.5
scalar RSUExampleScenario.node[28].veinsmobility 	totalTime 	282.5
scalar RSUExampleScenario.node[28].veinsmobility 	stopTime 	350
scalar RSUExampleScenario.node[28].veinsmobility 	minSpeed 	0
scalar RSUExampleScenario.node[28].veinsmobility 	maxSpeed 	13.999933423966
scalar RSUExampleScenario.node[28].veinsmobility 	totalDistance 	2170.0112275271
scalar RSUExampleScenario.node[28].veinsmobility 	totalCO2Emission 	558.70135888597
scalar RSUExampleScenario.node[29].veinsmobility 	startTime 	69.9
scalar RSUExampleScenario.node[29].veinsmobility 	totalTime 	280.1
scalar RSUExampleScenario.node[29].veinsmobility 	stopTime 	350
scalar RSUExampleScenario.node[29].veinsmobility 	minSpeed 	0
scalar RSUExampleScenario.node[29].veinsmobility 	maxSpeed 	13.999753864207
scalar RSUExampleScenario.node[29].veinsmobility 	totalDistance 	2135.2672513676
scalar RSUExampleScenario.node[29].veinsmobility 	totalCO2Emission 	553.61391501967
scalar RSUExampleScenario.node[3].veinsmobility 	startTime 	7.3
scalar RSUExampleScenario.node[3].veinsmobility 	totalTime 	342.7
scalar RSUExampleScenario.node[3].veinsmobility 	stopTime 	350
scalar RSUExampleScenario.node[3].veinsmobility 	minSpeed 	0
scalar RSUExampleScenario.node[3].veinsmobility 	maxSpeed 	13.999995528874
scalar RSUExampleScenario.node[3].veinsmobility 	totalDistance 	2990.0181545496
scalar RSUExampleScenario.node[3].veinsmobility 	totalCO2Emission 	714.57668078187
scalar RSUExampleScenario.node[30].veinsmobility 	startTime 	72.4
scalar RSUExampleScenario.node[30].veinsmobility 	totalTime 	277.6
scalar RSUExampleScenario.node[30].veinsmobility 	stopTime 	350
scalar RSUExampleScenario.node[30].veinsmobility 	minSpeed 	0
scalar RSUExampleScenario.node[30].veinsmobility 	maxSpeed 	13.999929691046
scalar RSUExampleScenario.node[30].veinsmobility 	totalDistance 	2102.885485102
scalar RSUExampleScenario.node[30].veinsmobility 	totalCO2Emission 	545.96327925976
scalar RSUExampleScenario.node[31].veinsmobility 	startTime 	74.8
scalar RSUExampleScenario.node[31].veinsmobility 	totalTime 	275.2
scalar RSUExampleScenario.node[31].veinsmobility 	stopTime 	350
scalar RSUExampleScenario.node[31].veinsmobility 	minSpeed 	0
scalar RSUExampleScenario.node[31].veinsmobility 	maxSpeed 	13.999978271401
scalar RSUExampleScenario.node[31].veinsmobility 	totalDistance 	2067.6887378545
scalar RSUExampleScenario.node[31].veinsmobility 	totalCO2Emission 	540.19502647404
scalar RSUExampleScenario.node[32].veinsmobility 	startTime 	77.2
scalar RSUExampleScenario.node[32].veinsmobility 	totalTime 	272.8
scalar RSUExampleScenario.node[32].veinsmobility 	stopTime 	350
scalar RSUExampleScenario.node[32].veinsmobility 	minSpeed 	0
scalar RSUExampleScenario.node[32].veinsmobility 	maxSpeed 	13.999779820032
scalar RSUExampleScenario.node[32].veinsmobility 	totalDistance 	2034.6901401726
scalar RSUExampleScenario.node[32].veinsmobility 	totalCO2Emission 	536.91414546414
scalar RSUExampleScenario.node[33].veinsmobility 	startTime 	79.6
scalar RSUExampleScenario.node[33].veinsmobility 	totalTime 	270.4
scalar RSUExampleScenario.node[33].veinsmobility 	stopTime 	350
scalar RSUExampleScenario.node[33].veinsmobility 	minSpeed 	0
scalar RSUExampleScenario.node[33].veinsmobility 	maxSpeed 	13.999842512775
scalar RSUExampleScenario.node[33].veinsmobility 	totalDistance 	2000.3683901319
scalar RSUExampleScenario.node[33].veinsmobility 	totalCO2Emission 	529.89680498909
scalar RSUExampleScenario.node[34].veinsmobility 	startTime 	82
scalar RSUExampleScenario.node[34].veinsmobility 	totalTime 	268
scalar RSUExampleScenario.node[34].veinsmobility 	stopTime 	350
scalar RSUExampleScenario.node[34].veinsmobility 	minSpeed 	0
scalar RSUExampleScenario.node[34].veinsmobility 	maxSpeed 	13.999941408054
scalar RSUExampleScenario.node[34].veinsmobility 	totalDistance 	1966.0693214613
scalar RSUExampleScenario.node[34].veinsmobility 	totalCO2Emission 	521.38170653234
scalar RSUExampleScenario.node[35].veinsmobility 	startTime 	84.4
scalar RSUExampleScenario.node[35].veinsmobility 	totalTime 	265.6
scalar RSUExampleScenario.node[35].veinsmobility 	stopTime 	350
scalar RSUExampleScenario.node[35].veinsmobility 	minSpeed 	0
scalar RSUExampleScenario.node[35].veinsmobility 	maxSpeed 	13.999782107112
scalar RSUExampleScenario.node[35].veinsmobility 	totalDistance 	1932.5401320339
scalar RSUExampleScenario.node[35].veinsmobility 	totalCO2Emission 	519.47209363374
scalar RSUExampleScenario.node[36].veinsmobility 	startTime 	86.8
scalar RSUExampleScenario.node[36].veinsmobility 	totalTime 	263.2
scalar RSUExampleScenario.node[36].veinsmobility 	stopTime 	350
scalar RSUExampleScenario.node[36].veinsmobility 	minSpeed 	0
scalar RSUExampleScenario.node[36].veinsmobility 	maxSpeed 	13.999958994933
scalar RSUExampleScenario.node[36].veinsmobility 	totalDistance 	1900.0317868535
scalar RSUExampleScenario.node[36].veinsmobility 	totalCO2Emission 	513.55025314942
scalar RSUExampleScenario.node[37].veinsmobility 	startTime 	89.2
scalar RSUExampleScenario.node[37].veinsmobility 	totalTime 	260.8
scalar RSUExampleScenario.node[37].veinsmobility 	stopTime 	350
scalar RSUExampleScenario.node[37].veinsmobility 	minSpeed 	0
scalar RSUExampleScenario.node[37].veinsmobility 	maxSpeed 	13.999815777156
scalar RSUExampleScenario.node[37].veinsmobility 	totalDistance 	1866.4459793981
scalar RSUExampleScenario.node[37].veinsmobility 	totalCO2Emission 	507.88910818022
scalar RSUExampleScenario.node[38].veinsmobility 	startTime 	91.6
scalar RSUExampleScenario.node[38].veinsmobility 	totalTime 	258.4
scalar RSUExampleScenario.node[38].veinsmobility 	stopTime 	350
scalar RSUExampleScenario.node[38].veinsmobility 	minSpeed 	0
scalar RSUExampleScenario.node[38].veinsmobility 	maxSpeed 	13.999998688973
scalar RSUExampleScenario.node[38].veinsmobility 	totalDistance 	1829.3148545388
scalar RSUExampleScenario.node[38].veinsmobility 	totalCO2Emission 	498.3088659055
scalar RSUExampleScenario.node[39].veinsmobility 	startTime 	94
scalar RSUExampleScenario.node[39].veinsmobility 	totalTime 	256
scalar RSUExampleScenario.node[39].veinsmobility 	stopTime 	350
scalar RSUExampleScenario.node[39].veinsmobility 	minSpeed 	0
scalar RSUExampleScenario.node[39].veinsmobility 	maxSpeed 	13.999868066157
scalar RSUExampleScenario.node[39].veinsmobility 	totalDistance 	1797.7468036071
scalar RSUExampleScenario.node[39].veinsmobility 	totalCO2Emission 	496.99888010269
scalar RSUExampleScenario.node[4].veinsmobility 	startTime 	9.7
scalar RSUExampleScenario.node[4].veinsmobility 	totalTime 	340.3
scalar RSUExampleScenario.node[4].veinsmobility 	stopTime 	350
scalar RSUExampleScenario.node[4].veinsmobility 	minSpeed 	0
scalar RSUExampleScenario.node[4].veinsmobility 	maxSpeed 	13.9999913867
scalar RSUExampleScenario.node[4].veinsmobility 	totalDistance 	2949.4135020953
scalar RSUExampleScenario.node[4].veinsmobility 	totalCO2Emission 	696.46023286237
scalar RSUExampleScenario.node[40].veinsmobility 	startTime 	96.5
scalar RSUExampleScenario.node[40].veinsmobility 	totalTime 	253.5
scalar RSUExampleScenario.node[40].veinsmobility 	stopTime 	350
scalar RSUExampleScenario.node[40].veinsmobility 	minSpeed 	0
scalar RSUExampleScenario.node[40].veinsmobility 	maxSpeed 	13.999628302956
scalar RSUExampleScenario.node[40].veinsmobility 	totalDistance 	1761.2260351063
scalar RSUExampleScenario.node[40].veinsmobility 	totalCO2Emission 	492.71062965216
scalar RSUExampleScenario.node[41].veinsmobility 	startTime 	98.9
scalar RSUExampleScenario.node[41].veinsmobility 	totalTime 	251.1
scalar RSUExampleScenario.node[41].veinsmobility 	stopTime 	350
scalar RSUExampleScenario.node[41].veinsmobility 	minSpeed 	0
scalar RSUExampleScenario.node[41].veinsmobility 	maxSpeed 	13.999841085428
scalar RSUExampleScenario.node[41].veinsmobility 	totalDistance 	1728.1118959135
scalar RSUExampleScenario.node[41].veinsmobility 	totalCO2Emission 	483.61433601184
scalar RSUExampleScenario.node[42].veinsmobility 	startTime 	101.3
scalar RSUExampleScenario.node[42].veinsmobility 	totalTime 	248.7
scalar RSUExampleScenario.node[42].veinsmobility 	stopTime 	350
scalar RSUExampleScenario.node[42].veinsmobility 	minSpeed 	0
scalar RSUExampleScenario.node[42].veinsmobility 	maxSpeed 	13.999834610592
scalar RSUExampleScenario.node[42].veinsmobility 	totalDistance 	1696.4999803397
scalar RSUExampleScenario.node[42].veinsmobility 	totalCO2Emission 	481.0193743824
scalar RSUExampleScenario.node[43].veinsmobility 	startTime 	103.7
scalar RSUExampleScenario.node[43].veinsmobility 	totalTime 	246.3
scalar RSUExampleScenario.node[43].veinsmobility 	stopTime 	350
scalar RSUExampleScenario.node[43].veinsmobility 	minSpeed 	0
scalar RSUExampleScenario.node[43].veinsmobility 	maxSpeed 	13.999656337041
scalar RSUExampleScenario.node[43].veinsmobility 	totalDistance 	1661.8834502736
scalar RSUExampleScenario.node[43].veinsmobility 	totalCO2Emission 	474.93158441021
scalar RSUExampleScenario.node[44].veinsmobility 	startTime 	106.1
scalar RSUExampleScenario.node[44].veinsmobility 	totalTime 	243.9
scalar RSUExampleScenario.node[44].veinsmobility 	stopTime 	350
scalar RSUExampleScenario.node[44].veinsmobility 	minSpeed 	0
scalar RSUExampleScenario.node[44].veinsmobility 	maxSpeed 	13.999972432405
scalar RSUExampleScenario.node[44].veinsmobility 	totalDistance 	1628.8428835219
scalar RSUExampleScenario.node[44].veinsmobility 	totalCO2Emission 	466.28755680391
scalar RSUExampleScenario.node[45].veinsmobility 	startTime 	108.5
scalar RSUExampleScenario.node[45].veinsmobility 	totalTime 	241.5
scalar RSUExampleScenario.node[45].veinsmobility 	stopTime 	350
scalar RSUExampleScenario.node[45].veinsmobility 	minSpeed 	0
scalar RSUExampleScenario.node[45].veinsmobility 	maxSpeed 	13.999884584607
scalar RSUExampleScenario.node[45].veinsmobility 	totalDistance 	1595.319274162
scalar RSUExampleScenario.node[45].veinsmobility 	totalCO2Emission 	462.16341450782
scalar RSUExampleScenario.node[46].veinsmobility 	startTime 	110.9
scalar RSUExampleScenario.node[46].veinsmobility 	totalTime 	239.1
scalar RSUExampleScenario.node[46].veinsmobility 	stopTime 	350
scalar RSUExampleScenario.node[46].veinsmobility 	minSpeed 	0
scalar RSUExampleScenario.node[46].veinsmobility 	maxSpeed 	13.999692999257
scalar RSUExampleScenario.node[46].veinsmobility 	totalDistance 	1562.229294239
scalar RSUExampleScenario.node[46].veinsmobility 	totalCO2Emission 	454.11294518478
scalar RSUExampleScenario.node[47].veinsmobility 	startTime 	113.3
scalar RSUExampleScenario.node[47].veinsmobility 	totalTime 	236.7
scalar RSUExampleScenario.node[47].veinsmobility 	stopTime 	350
scalar RSUExampleScenario.node[47].veinsmobility 	minSpeed 	0
scalar RSUExampleScenario.node[47].veinsmobility 	maxSpeed 	13.99957041698
scalar RSUExampleScenario.node[47].veinsmobility 	totalDistance 	1528.6254400195
scalar RSUExampleScenario.node[47].veinsmobility 	totalCO2Emission 	450.82631659364
scalar RSUExampleScenario.node[48].veinsmobility 	startTime 	115.7
scalar RSUExampleScenario.node[48].veinsmobility 	totalTime 	234.3
scalar RSUExampleScenario.node[48].veinsmobility 	stopTime 	350
scalar RSUExampleScenario.node[48].veinsmobility 	minSpeed 	0
scalar RSUExampleScenario.node[48].veinsmobility 	maxSpeed 	13.99993201263
scalar RSUExampleScenario.node[48].veinsmobility 	totalDistance 	1494.2568969262
scalar RSUExampleScenario.node[48].veinsmobility 	totalCO2Emission 	444.7715812872
scalar RSUExampleScenario.node[49].veinsmobility 	startTime 	118.1
scalar RSUExampleScenario.node[49].veinsmobility 	totalTime 	231.9
scalar RSUExampleScenario.node[49].veinsmobility 	stopTime 	350
scalar RSUExampleScenario.node[49].veinsmobility 	minSpeed 	0
scalar RSUExampleScenario.node[49].veinsmobility 	maxSpeed 	13.999956294515
scalar RSUExampleScenario.node[49].veinsmobility 	totalDistance 	1462.3626458984
scalar RSUExampleScenario.node[49].veinsmobility 	totalCO2Emission 	437.96860735623
scalar RSUExampleScenario.node[5].veinsmobility 	startTime 	12.1
scalar RSUExampleScenario.node[5].veinsmobility 	totalTime 	337.9
scalar RSUExampleScenario.node[5].veinsmobility 	stopTime 	350
scalar RSUExampleScenario.node[5].veinsmobility 	minSpeed 	0
scalar RSUExampleScenario.node[5].veinsmobility 	maxSpeed 	13.999973157262
scalar RSUExampleScenario.node[5].veinsmobility 	totalDistance 	2913.0680461015
scalar RSUExampleScenario.node[5].veinsmobility 	totalCO2Emission 	683.65814974433
scalar RSUExampleScenario.node[50].veinsmobility 	startTime 	120.6
scalar RSUExampleScenario.node[50].veinsmobility 	totalTime 	229.4
scalar RSUExampleScenario.node[50].veinsmobility 	stopTime 	350
scalar RSUExampleScenario.node[50].veinsmobility 	minSpeed 	0
scalar RSUExampleScenario.node[50].veinsmobility 	maxSpeed 	13.999744376496
scalar RSUExampleScenario.node[50].veinsmobility 	totalDistance 	1428.2552376753
scalar RSUExampleScenario.node[50].veinsmobility 	totalCO2Emission 	435.75574227825
scalar RSUExampleScenario.node[51].veinsmobility 	startTime 	123
scalar RSUExampleScenario.node[51].veinsmobility 	totalTime 	227
scalar RSUExampleScenario.node[51].veinsmobility 	stopTime 	350
scalar RSUExampleScenario.node[51].veinsmobility 	minSpeed 	0
scalar RSUExampleScenario.node[51].veinsmobility 	maxSpeed 	13.999916771338
scalar RSUExampleScenario.node[51].veinsmobility 	totalDistance 	1393.8217472414
scalar RSUExampleScenario.node[51].veinsmobility 	totalCO2Emission 	428.68853169108
scalar RSUExampleScenario.node[52].veinsmobility 	startTime 	125.4
scalar RSUExampleScenario.node[52].veinsmobility 	totalTime 	224.6
scalar RSUExampleScenario.node[52].veinsmobility 	stopTime 	350
scalar RSUExampleScenario.node[52].veinsmobility 	minSpeed 	0
scalar RSUExampleScenario.node[52].veinsmobility 	maxSpeed 	13.99987413171
scalar RSUExampleScenario.node[52].veinsmobility 	totalDistance 	1359.5129424637
scalar RSUExampleScenario.node[52].veinsmobility 	totalCO2Emission 	421.41718363819
scalar RSUExampleScenario.node[53].veinsmobility 	startTime 	127.8
scalar RSUExampleScenario.node[53].veinsmobility 	totalTime 	222.2
scalar RSUExampleScenario.node[53].veinsmobility 	stopTime 	350
scalar RSUExampleScenario.node[53].veinsmobility 	minSpeed 	0
scalar RSUExampleScenario.node[53].veinsmobility 	maxSpeed 	13.999717006581
scalar RSUExampleScenario.node[53].veinsmobility 	totalDistance 	1326.3139650906
scalar RSUExampleScenario.node[53].veinsmobility 	totalCO2Emission 	416.41624560665
scalar RSUExampleScenario.node[54].veinsmobility 	startTime 	130.2
scalar RSUExampleScenario.node[54].veinsmobility 	totalTime 	219.8
scalar RSUExampleScenario.node[54].veinsmobility 	stopTime 	350
scalar RSUExampleScenario.node[54].veinsmobility 	minSpeed 	0
scalar RSUExampleScenario.node[54].veinsmobility 	maxSpeed 	13.999972970448
scalar RSUExampleScenario.node[54].veinsmobility 	totalDistance 	1292.4393132187
scalar RSUExampleScenario.node[54].veinsmobility 	totalCO2Emission 	413.03777355164
scalar RSUExampleScenario.node[55].veinsmobility 	startTime 	132.6
scalar RSUExampleScenario.node[55].veinsmobility 	totalTime 	217.4
scalar RSUExampleScenario.node[55].veinsmobility 	stopTime 	350
scalar RSUExampleScenario.node[55].veinsmobility 	minSpeed 	0
scalar RSUExampleScenario.node[55].veinsmobility 	maxSpeed 	13.99986061648
scalar RSUExampleScenario.node[55].veinsmobility 	totalDistance 	1260.5013845357
scalar RSUExampleScenario.node[55].veinsmobility 	totalCO2Emission 	407.45341024887
scalar RSUExampleScenario.node[56].veinsmobility 	startTime 	135
scalar RSUExampleScenario.node[56].veinsmobility 	totalTime 	215
scalar RSUExampleScenario.node[56].veinsmobility 	stopTime 	350
scalar RSUExampleScenario.node[56].veinsmobility 	minSpeed 	0
scalar RSUExampleScenario.node[56].veinsmobility 	maxSpeed 	13.999776113445
scalar RSUExampleScenario.node[56].veinsmobility 	totalDistance 	1225.250465714
scalar RSUExampleScenario.node[56].veinsmobility 	totalCO2Emission 	398.77305763804
scalar RSUExampleScenario.node[57].veinsmobility 	startTime 	137.4
scalar RSUExampleScenario.node[57].veinsmobility 	totalTime 	212.6
scalar RSUExampleScenario.node[57].veinsmobility 	stopTime 	350
scalar RSUExampleScenario.node[57].veinsmobility 	minSpeed 	0
scalar RSUExampleScenario.node[57].veinsmobility 	maxSpeed 	13.999858750731
scalar RSUExampleScenario.node[57].veinsmobility 	totalDistance 	1191.6640202548
scalar RSUExampleScenario.node[57].veinsmobility 	totalCO2Emission 	394.3196469843
scalar RSUExampleScenario.node[58].veinsmobility 	startTime 	139.8
scalar RSUExampleScenario.node[58].veinsmobility 	totalTime 	210.2
scalar RSUExampleScenario.node[58].veinsmobility 	stopTime 	350
scalar RSUExampleScenario.node[58].veinsmobility 	minSpeed 	0
scalar RSUExampleScenario.node[58].veinsmobility 	maxSpeed 	13.99997418486
scalar RSUExampleScenario.node[58].veinsmobility 	totalDistance 	1157.8370555135
scalar RSUExampleScenario.node[58].veinsmobility 	totalCO2Emission 	387.16792140171
scalar RSUExampleScenario.node[59].veinsmobility 	startTime 	142.2
scalar RSUExampleScenario.node[59].veinsmobility 	totalTime 	207.8
scalar RSUExampleScenario.node[59].veinsmobility 	stopTime 	350
scalar RSUExampleScenario.node[59].veinsmobility 	minSpeed 	0
scalar RSUExampleScenario.node[59].veinsmobility 	maxSpeed 	13.999927361168
scalar RSUExampleScenario.node[59].veinsmobility 	totalDistance 	1124.1464180088
scalar RSUExampleScenario.node[59].veinsmobility 	totalCO2Emission 	381.28248231587
scalar RSUExampleScenario.node[6].veinsmobility 	startTime 	14.5
scalar RSUExampleScenario.node[6].veinsmobility 	totalTime 	335.5
scalar RSUExampleScenario.node[6].veinsmobility 	stopTime 	350
scalar RSUExampleScenario.node[6].veinsmobility 	minSpeed 	0
scalar RSUExampleScenario.node[6].veinsmobility 	maxSpeed 	13.99997914766
scalar RSUExampleScenario.node[6].veinsmobility 	totalDistance 	2904.9192342447
scalar RSUExampleScenario.node[6].veinsmobility 	totalCO2Emission 	683.44558136743
scalar RSUExampleScenario.node[60].veinsmobility 	startTime 	144.7
scalar RSUExampleScenario.node[60].veinsmobility 	totalTime 	205.3
scalar RSUExampleScenario.node[60].veinsmobility 	stopTime 	350
scalar RSUExampleScenario.node[60].veinsmobility 	minSpeed 	0
scalar RSUExampleScenario.node[60].veinsmobility 	maxSpeed 	13.999880332591
scalar RSUExampleScenario.node[60].veinsmobility 	totalDistance 	1090.6863496939
scalar RSUExampleScenario.node[60].veinsmobility 	totalCO2Emission 	376.89662756777
scalar RSUExampleScenario.node[61].veinsmobility 	startTime 	147.1
scalar RSUExampleScenario.node[61].veinsmobility 	totalTime 	202.9
scalar RSUExampleScenario.node[61].veinsmobility 	stopTime 	350
scalar RSUExampleScenario.node[61].veinsmobility 	minSpeed 	0
scalar RSUExampleScenario.node[61].veinsmobility 	maxSpeed 	13.999159610705
scalar RSUExampleScenario.node[61].veinsmobility 	totalDistance 	1056.8189938517
scalar RSUExampleScenario.node[61].veinsmobility 	totalCO2Emission 	371.19660871432
scalar RSUExampleScenario.node[62].veinsmobility 	startTime 	149.5
scalar RSUExampleScenario.node[62].veinsmobility 	totalTime 	200.5
scalar RSUExampleScenario.node[62].veinsmobility 	stopTime 	350
scalar RSUExampleScenario.node[62].veinsmobility 	minSpeed 	0
scalar RSUExampleScenario.node[62].veinsmobility 	maxSpeed 	13.999957164386
scalar RSUExampleScenario.node[62].veinsmobility 	totalDistance 	1023.4118911514
scalar RSUExampleScenario.node[62].veinsmobility 	totalCO2Emission 	364.59476989494
scalar RSUExampleScenario.node[63].veinsmobility 	startTime 	151.9
scalar RSUExampleScenario.node[63].veinsmobility 	totalTime 	198.1
scalar RSUExampleScenario.node[63].veinsmobility 	stopTime 	350
scalar RSUExampleScenario.node[63].veinsmobility 	minSpeed 	0
scalar RSUExampleScenario.node[63].veinsmobility 	maxSpeed 	13.99993339621
scalar RSUExampleScenario.node[63].veinsmobility 	totalDistance 	986.12132743639
scalar RSUExampleScenario.node[63].veinsmobility 	totalCO2Emission 	352.6199301911
scalar RSUExampleScenario.node[64].veinsmobility 	startTime 	154.3
scalar RSUExampleScenario.node[64].veinsmobility 	totalTime 	195.7
scalar RSUExampleScenario.node[64].veinsmobility 	stopTime 	350
scalar RSUExampleScenario.node[64].veinsmobility 	minSpeed 	0
scalar RSUExampleScenario.node[64].veinsmobility 	maxSpeed 	13.999879985326
scalar RSUExampleScenario.node[64].veinsmobility 	totalDistance 	952.41935015667
scalar RSUExampleScenario.node[64].veinsmobility 	totalCO2Emission 	337.68007036788
scalar RSUExampleScenario.node[65].veinsmobility 	startTime 	156.7
scalar RSUExampleScenario.node[65].veinsmobility 	totalTime 	193.3
scalar RSUExampleScenario.node[65].veinsmobility 	stopTime 	350
scalar RSUExampleScenario.node[65].veinsmobility 	minSpeed 	0
scalar RSUExampleScenario.node[65].veinsmobility 	maxSpeed 	13.999929983949
scalar RSUExampleScenario.node[65].veinsmobility 	totalDistance 	940.19555527826
scalar RSUExampleScenario.node[65].veinsmobility 	totalCO2Emission 	330.16925755899
scalar RSUExampleScenario.node[66].veinsmobility 	startTime 	159.1
scalar RSUExampleScenario.node[66].veinsmobility 	totalTime 	190.9
scalar RSUExampleScenario.node[66].veinsmobility 	stopTime 	350
scalar RSUExampleScenario.node[66].veinsmobility 	minSpeed 	0
scalar RSUExampleScenario.node[66].veinsmobility 	maxSpeed 	13.99986433923
scalar RSUExampleScenario.node[66].veinsmobility 	totalDistance 	927.57394755504
scalar RSUExampleScenario.node[66].veinsmobility 	totalCO2Emission 	326.32678617288
scalar RSUExampleScenario.node[67].veinsmobility 	startTime 	161.5
scalar RSUExampleScenario.node[67].veinsmobility 	totalTime 	188.5
scalar RSUExampleScenario.node[67].veinsmobility 	stopTime 	350
scalar RSUExampleScenario.node[67].veinsmobility 	minSpeed 	0
scalar RSUExampleScenario.node[67].veinsmobility 	maxSpeed 	13.999977721281
scalar RSUExampleScenario.node[67].veinsmobility 	totalDistance 	911.9567728375
scalar RSUExampleScenario.node[67].veinsmobility 	totalCO2Emission 	322.70811088365
scalar RSUExampleScenario.node[68].veinsmobility 	startTime 	163.9
scalar RSUExampleScenario.node[68].veinsmobility 	totalTime 	186.1
scalar RSUExampleScenario.node[68].veinsmobility 	stopTime 	350
scalar RSUExampleScenario.node[68].veinsmobility 	minSpeed 	0
scalar RSUExampleScenario.node[68].veinsmobility 	maxSpeed 	13.999692955702
scalar RSUExampleScenario.node[68].veinsmobility 	totalDistance 	892.32852688861
scalar RSUExampleScenario.node[68].veinsmobility 	totalCO2Emission 	323.43383950429
scalar RSUExampleScenario.node[69].veinsmobility 	startTime 	166.3
scalar RSUExampleScenario.node[69].veinsmobility 	totalTime 	183.7
scalar RSUExampleScenario.node[69].veinsmobility 	stopTime 	350
scalar RSUExampleScenario.node[69].veinsmobility 	minSpeed 	0
scalar RSUExampleScenario.node[69].veinsmobility 	maxSpeed 	13.999889203985
scalar RSUExampleScenario.node[69].veinsmobility 	totalDistance 	858.43152229387
scalar RSUExampleScenario.node[69].veinsmobility 	totalCO2Emission 	316.83570943442
scalar RSUExampleScenario.node[7].veinsmobility 	startTime 	16.9
scalar RSUExampleScenario.node[7].veinsmobility 	totalTime 	333.1
scalar RSUExampleScenario.node[7].veinsmobility 	stopTime 	350
scalar RSUExampleScenario.node[7].veinsmobility 	minSpeed 	0
scalar RSUExampleScenario.node[7].veinsmobility 	maxSpeed 	13.999994428754
scalar RSUExampleScenario.node[7].veinsmobility 	totalDistance 	2884.4133130158
scalar RSUExampleScenario.node[7].veinsmobility 	totalCO2Emission 	676.02676241915
scalar RSUExampleScenario.node[70].veinsmobility 	startTime 	168.8
scalar RSUExampleScenario.node[70].veinsmobility 	totalTime 	181.2
scalar RSUExampleScenario.node[70].veinsmobility 	stopTime 	350
scalar RSUExampleScenario.node[70].veinsmobility 	minSpeed 	0
scalar RSUExampleScenario.node[70].veinsmobility 	maxSpeed 	13.999499547433
scalar RSUExampleScenario.node[70].veinsmobility 	totalDistance 	825.16651511487
scalar RSUExampleScenario.node[70].veinsmobility 	totalCO2Emission 	309.52305120191
scalar RSUExampleScenario.node[71].veinsmobility 	startTime 	171.2
scalar RSUExampleScenario.node[71].veinsmobility 	totalTime 	178.8
scalar RSUExampleScenario.node[71].veinsmobility 	stopTime 	350
scalar RSUExampleScenario.node[71].veinsmobility 	minSpeed 	0
scalar RSUExampleScenario.node[71].veinsmobility 	maxSpeed 	13.99996613845
scalar RSUExampleScenario.node[71].veinsmobility 	totalDistance 	791.57612502769
scalar RSUExampleScenario.node[71].veinsmobility 	totalCO2Emission 	305.09041926175
scalar RSUExampleScenario.node[72].veinsmobility 	startTime 	173.6
scalar RSUExampleScenario.node[72].veinsmobility 	totalTime 	176.4
scalar RSUExampleScenario.node[72].veinsmobility 	stopTime 	350
scalar RSUExampleScenario.node[72].veinsmobility 	minSpeed 	0
scalar RSUExampleScenario.node[72].veinsmobility 	maxSpeed 	13.999512566177
scalar RSUExampleScenario.node[72].veinsmobility 	totalDistance 	758.3355018399
scalar RSUExampleScenario.node[72].veinsmobility 	totalCO2Emission 	300.33545744651
scalar RSUExampleScenario.node[73].veinsmobility 	startTime 	176
scalar RSUExampleScenario.node[73].veinsmobility 	totalTime 	174
scalar RSUExampleScenario.node[73].veinsmobility 	stopTime 	350
scalar RSUExampleScenario.node[73].veinsmobility 	minSpeed 	0
scalar RSUExampleScenario.node[73].veinsmobility 	maxSpeed 	13.998774926031
scalar RSUExampleScenario.node[73].veinsmobility 	totalDistance 	724.20240970301
scalar RSUExampleScenario.node[73].veinsmobility 	totalCO2Emission 	293.64549391096
scalar RSUExampleScenario.node[74].veinsmobility 	startTime 	178.4
scalar RSUExampleScenario.node[74].veinsmobility 	totalTime 	171.6
scalar RSUExampleScenario.node[74].veinsmobility 	stopTime 	350
scalar RSUExampleScenario.node[74].veinsmobility 	minSpeed 	0
scalar RSUExampleScenario.node[74].veinsmobility 	maxSpeed 	13.999434367782
scalar RSUExampleScenario.node[74].veinsmobility 	totalDistance 	690.12731047781
scalar RSUExampleScenario.node[74].veinsmobility 	totalCO2Emission 	286.9768769798
scalar RSUExampleScenario.node[75].veinsmobility 	startTime 	180.8
scalar RSUExampleScenario.node[75].veinsmobility 	totalTime 	169.2
scalar RSUExampleScenario.node[75].veinsmobility 	stopTime 	350
scalar RSUExampleScenario.node[75].veinsmobility 	minSpeed 	0
scalar RSUExampleScenario.node[75].veinsmobility 	maxSpeed 	13.99901300709
scalar RSUExampleScenario.node[75].veinsmobility 	totalDistance 	655.89631374092
scalar RSUExampleScenario.node[75].veinsmobility 	totalCO2Emission 	281.31430301815
scalar RSUExampleScenario.node[76].veinsmobility 	startTime 	183.2
scalar RSUExampleScenario.node[76].veinsmobility 	totalTime 	166.8
scalar RSUExampleScenario.node[76].veinsmobility 	stopTime 	350
scalar RSUExampleScenario.node[76].veinsmobility 	minSpeed 	0
scalar RSUExampleScenario.node[76].veinsmobility 	maxSpeed 	13.99930851968
scalar RSUExampleScenario.node[76].veinsmobility 	totalDistance 	622.38788454753
scalar RSUExampleScenario.node[76].veinsmobility 	totalCO2Emission 	276.54447062514
scalar RSUExampleScenario.node[77].veinsmobility 	startTime 	185.6
scalar RSUExampleScenario.node[77].veinsmobility 	totalTime 	164.4
scalar RSUExampleScenario.node[77].veinsmobility 	stopTime 	350
scalar RSUExampleScenario.node[77].veinsmobility 	minSpeed 	0
scalar RSUExampleScenario.node[77].veinsmobility 	maxSpeed 	13.999937600766
scalar RSUExampleScenario.node[77].veinsmobility 	totalDistance 	589.40175374088
scalar RSUExampleScenario.node[77].veinsmobility 	totalCO2Emission 	269.74194190746
scalar RSUExampleScenario.node[78].veinsmobility 	startTime 	188
scalar RSUExampleScenario.node[78].veinsmobility 	totalTime 	162
scalar RSUExampleScenario.node[78].veinsmobility 	stopTime 	350
scalar RSUExampleScenario.node[78].veinsmobility 	minSpeed 	0
scalar RSUExampleScenario.node[78].veinsmobility 	maxSpeed 	13.999805476568
scalar RSUExampleScenario.node[78].veinsmobility 	totalDistance 	556.8056434953
scalar RSUExampleScenario.node[78].veinsmobility 	totalCO2Emission 	264.89016665068
scalar RSUExampleScenario.node[79].veinsmobility 	startTime 	190.4
scalar RSUExampleScenario.node[79].veinsmobility 	totalTime 	159.6
scalar RSUExampleScenario.node[79].veinsmobility 	stopTime 	350
scalar RSUExampleScenario.node[79].veinsmobility 	minSpeed 	0
scalar RSUExampleScenario.node[79].veinsmobility 	maxSpeed 	13.999824535681
scalar RSUExampleScenario.node[79].veinsmobility 	totalDistance 	522.75933676493
scalar RSUExampleScenario.node[79].veinsmobility 	totalCO2Emission 	258.92717456699
scalar RSUExampleScenario.node[8].veinsmobility 	startTime 	19.3
scalar RSUExampleScenario.node[8].veinsmobility 	totalTime 	330.7
scalar RSUExampleScenario.node[8].veinsmobility 	stopTime 	350
scalar RSUExampleScenario.node[8].veinsmobility 	minSpeed 	0
scalar RSUExampleScenario.node[8].veinsmobility 	maxSpeed 	13.999880880108
scalar RSUExampleScenario.node[8].veinsmobility 	totalDistance 	2860.850104561
scalar RSUExampleScenario.node[8].veinsmobility 	totalCO2Emission 	673.79115807223
scalar RSUExampleScenario.node[80].veinsmobility 	startTime 	192.9
scalar RSUExampleScenario.node[80].veinsmobility 	totalTime 	157.1
scalar RSUExampleScenario.node[80].veinsmobility 	stopTime 	350
scalar RSUExampleScenario.node[80].veinsmobility 	minSpeed 	0
scalar RSUExampleScenario.node[80].veinsmobility 	maxSpeed 	13.999954648572
scalar RSUExampleScenario.node[80].veinsmobility 	totalDistance 	488.90946976231
scalar RSUExampleScenario.node[80].veinsmobility 	totalCO2Emission 	254.15330825448
scalar RSUExampleScenario.node[81].veinsmobility 	startTime 	195.3
scalar RSUExampleScenario.node[81].veinsmobility 	totalTime 	154.7
scalar RSUExampleScenario.node[81].veinsmobility 	stopTime 	350
scalar RSUExampleScenario.node[81].veinsmobility 	minSpeed 	0
scalar RSUExampleScenario.node[81].veinsmobility 	maxSpeed 	13.999283335356
scalar RSUExampleScenario.node[81].veinsmobility 	totalDistance 	456.71011852598
scalar RSUExampleScenario.node[81].veinsmobility 	totalCO2Emission 	247.75113026457
scalar RSUExampleScenario.node[82].veinsmobility 	startTime 	197.7
scalar RSUExampleScenario.node[82].veinsmobility 	totalTime 	152.3
scalar RSUExampleScenario.node[82].veinsmobility 	stopTime 	350
scalar RSUExampleScenario.node[82].veinsmobility 	minSpeed 	0
scalar RSUExampleScenario.node[82].veinsmobility 	maxSpeed 	13.999729536709
scalar RSUExampleScenario.node[82].veinsmobility 	totalDistance 	422.30652216952
scalar RSUExampleScenario.node[82].veinsmobility 	totalCO2Emission 	242.12157713001
scalar RSUExampleScenario.node[83].veinsmobility 	startTime 	200.1
scalar RSUExampleScenario.node[83].veinsmobility 	totalTime 	149.9
scalar RSUExampleScenario.node[83].veinsmobility 	stopTime 	350
scalar RSUExampleScenario.node[83].veinsmobility 	minSpeed 	0
scalar RSUExampleScenario.node[83].veinsmobility 	maxSpeed 	13.998632552519
scalar RSUExampleScenario.node[83].veinsmobility 	totalDistance 	388.56465190247
scalar RSUExampleScenario.node[83].veinsmobility 	totalCO2Emission 	237.29096461527
scalar RSUExampleScenario.node[84].veinsmobility 	startTime 	202.5
scalar RSUExampleScenario.node[84].veinsmobility 	totalTime 	147.5
scalar RSUExampleScenario.node[84].veinsmobility 	stopTime 	350
scalar RSUExampleScenario.node[84].veinsmobility 	minSpeed 	0
scalar RSUExampleScenario.node[84].veinsmobility 	maxSpeed 	13.998474874576
scalar RSUExampleScenario.node[84].veinsmobility 	totalDistance 	352.89445917439
scalar RSUExampleScenario.node[84].veinsmobility 	totalCO2Emission 	230.83781344198
scalar RSUExampleScenario.node[85].veinsmobility 	startTime 	204.9
scalar RSUExampleScenario.node[85].veinsmobility 	totalTime 	145.1
scalar RSUExampleScenario.node[85].veinsmobility 	stopTime 	350
scalar RSUExampleScenario.node[85].veinsmobility 	minSpeed 	0
scalar RSUExampleScenario.node[85].veinsmobility 	maxSpeed 	13.993103921907
scalar RSUExampleScenario.node[85].veinsmobility 	totalDistance 	321.48676794239
scalar RSUExampleScenario.node[85].veinsmobility 	totalCO2Emission 	224.93542642752
scalar RSUExampleScenario.node[86].veinsmobility 	startTime 	207.3
scalar RSUExampleScenario.node[86].veinsmobility 	totalTime 	142.7
scalar RSUExampleScenario.node[86].veinsmobility 	stopTime 	350
scalar RSUExampleScenario.node[86].veinsmobility 	minSpeed 	0
scalar RSUExampleScenario.node[86].veinsmobility 	maxSpeed 	13.761017561849
scalar RSUExampleScenario.node[86].veinsmobility 	totalDistance 	286.98107849252
scalar RSUExampleScenario.node[86].veinsmobility 	totalCO2Emission 	218.92255200883
scalar RSUExampleScenario.node[87].veinsmobility 	startTime 	209.7
scalar RSUExampleScenario.node[87].veinsmobility 	totalTime 	140.3
scalar RSUExampleScenario.node[87].veinsmobility 	stopTime 	350
scalar RSUExampleScenario.node[87].veinsmobility 	minSpeed 	0
scalar RSUExampleScenario.node[87].veinsmobility 	maxSpeed 	13.852342839974
scalar RSUExampleScenario.node[87].veinsmobility 	totalDistance 	248.03166082976
scalar RSUExampleScenario.node[87].veinsmobility 	totalCO2Emission 	201.8451504735
scalar RSUExampleScenario.node[88].veinsmobility 	startTime 	212.1
scalar RSUExampleScenario.node[88].veinsmobility 	totalTime 	137.9
scalar RSUExampleScenario.node[88].veinsmobility 	stopTime 	350
scalar RSUExampleScenario.node[88].veinsmobility 	minSpeed 	0
scalar RSUExampleScenario.node[88].veinsmobility 	maxSpeed 	13.840767542808
scalar RSUExampleScenario.node[88].veinsmobility 	totalDistance 	225.47692355046
scalar RSUExampleScenario.node[88].veinsmobility 	totalCO2Emission 	189.09101416166
scalar RSUExampleScenario.node[89].veinsmobility 	startTime 	214.5
scalar RSUExampleScenario.node[89].veinsmobility 	totalTime 	135.5
scalar RSUExampleScenario.node[89].veinsmobility 	stopTime 	350
scalar RSUExampleScenario.node[89].veinsmobility 	minSpeed 	0
scalar RSUExampleScenario.node[89].veinsmobility 	maxSpeed 	13.708707761551
scalar RSUExampleScenario.node[89].veinsmobility 	totalDistance 	215.01731579959
scalar RSUExampleScenario.node[89].veinsmobility 	totalCO2Emission 	185.62292046211
scalar RSUExampleScenario.node[9].veinsmobility 	startTime 	21.7
scalar RSUExampleScenario.node[9].veinsmobility 	totalTime 	328.3
scalar RSUExampleScenario.node[9].veinsmobility 	stopTime 	350
scalar RSUExampleScenario.node[9].veinsmobility 	minSpeed 	0
scalar RSUExampleScenario.node[9].veinsmobility 	maxSpeed 	13.999882630475
scalar RSUExampleScenario.node[9].veinsmobility 	totalDistance 	2825.1974400349
scalar RSUExampleScenario.node[9].veinsmobility 	totalCO2Emission 	671.5868531411
scalar RSUExampleScenario.node[90].veinsmobility 	startTime 	217
scalar RSUExampleScenario.node[90].veinsmobility 	totalTime 	133
scalar RSUExampleScenario.node[90].veinsmobility 	stopTime 	350
scalar RSUExampleScenario.node[90].veinsmobility 	minSpeed 	0
scalar RSUExampleScenario.node[90].veinsmobility 	maxSpeed 	13.844591483637
scalar RSUExampleScenario.node[90].veinsmobility 	totalDistance 	201.73162803571
scalar RSUExampleScenario.node[90].veinsmobility 	totalCO2Emission 	182.40648598684
scalar RSUExampleScenario.node[91].veinsmobility 	startTime 	219.4
scalar RSUExampleScenario.node[91].veinsmobility 	totalTime 	130.6
scalar RSUExampleScenario.node[91].veinsmobility 	stopTime 	350
scalar RSUExampleScenario.node[91].veinsmobility 	minSpeed 	0
scalar RSUExampleScenario.node[91].veinsmobility 	maxSpeed 	13.757432633583
scalar RSUExampleScenario.node[91].veinsmobility 	totalDistance 	185.0504943779
scalar RSUExampleScenario.node[91].veinsmobility 	totalCO2Emission 	180.53458044299
scalar RSUExampleScenario.node[92].veinsmobility 	startTime 	221.8
scalar RSUExampleScenario.node[92].veinsmobility 	totalTime 	128.2
scalar RSUExampleScenario.node[92].veinsmobility 	stopTime 	350
scalar RSUExampleScenario.node[92].veinsmobility 	minSpeed 	0
scalar RSUExampleScenario.node[92].veinsmobility 	maxSpeed 	13.773290935114
scalar RSUExampleScenario.node[92].veinsmobility 	totalDistance 	151.93057049854
scalar RSUExampleScenario.node[92].veinsmobility 	totalCO2Emission 	167.59458655662
scalar RSUExampleScenario.node[93].veinsmobility 	startTime 	224.2
scalar RSUExampleScenario.node[93].veinsmobility 	totalTime 	125.8
scalar RSUExampleScenario.node[93].veinsmobility 	stopTime 	350
scalar RSUExampleScenario.node[93].veinsmobility 	minSpeed 	0
scalar RSUExampleScenario.node[93].veinsmobility 	maxSpeed 	13.817082620978
scalar RSUExampleScenario.node[93].veinsmobility 	totalDistance 	123.80830290916
scalar RSUExampleScenario.node[93].veinsmobility 	totalCO2Emission 	154.48204579955
scalar RSUExampleScenario.node[94].veinsmobility 	startTime 	226.6
scalar RSUExampleScenario.node[94].veinsmobility 	totalTime 	123.4
scalar RSUExampleScenario.node[94].veinsmobility 	stopTime 	350
scalar RSUExampleScenario.node[94].veinsmobility 	minSpeed 	0
scalar RSUExampleScenario.node[94].veinsmobility 	maxSpeed 	13.823993890279
scalar RSUExampleScenario.node[94].veinsmobility 	totalDistance 	112.50197637064
scalar RSUExampleScenario.node[94].veinsmobility 	totalCO2Emission 	148.50862484427
scalar RSUExampleScenario.node[95].veinsmobility 	startTime 	229
scalar RSUExampleScenario.node[95].veinsmobility 	totalTime 	121
scalar RSUExampleScenario.node[95].veinsmobility 	stopTime 	350
scalar RSUExampleScenario.node[95].veinsmobility 	minSpeed 	0
scalar RSUExampleScenario.node[95].veinsmobility 	maxSpeed 	13.849027067146
scalar RSUExampleScenario.node[95].veinsmobility 	totalDistance 	99.263865960165
scalar RSUExampleScenario.node[95].veinsmobility 	totalCO2Emission 	144.93489051091
scalar RSUExampleScenario.node[96].veinsmobility 	startTime 	231.4
scalar RSUExampleScenario.node[96].veinsmobility 	totalTime 	118.6
scalar RSUExampleScenario.node[96].veinsmobility 	stopTime 	350
scalar RSUExampleScenario.node[96].veinsmobility 	minSpeed 	0
scalar RSUExampleScenario.node[96].veinsmobility 	maxSpeed 	13.799967064274
scalar RSUExampleScenario.node[96].veinsmobility 	totalDistance 	83.070440549518
scalar RSUExampleScenario.node[96].veinsmobility 	totalCO2Emission 	142.58832123877
scalar RSUExampleScenario.node[97].veinsmobility 	startTime 	233.8
scalar RSUExampleScenario.node[97].veinsmobility 	totalTime 	116.2
scalar RSUExampleScenario.node[97].veinsmobility 	stopTime 	350
scalar RSUExampleScenario.node[97].veinsmobility 	minSpeed 	0
scalar RSUExampleScenario.node[97].veinsmobility 	maxSpeed 	12.622674385747
scalar RSUExampleScenario.node[97].veinsmobility 	totalDistance 	58.073371520992
scalar RSUExampleScenario.node[97].veinsmobility 	totalCO2Emission 	135.59269898303
scalar RSUExampleScenario.node[98].veinsmobility 	startTime 	236.2
scalar RSUExampleScenario.node[98].veinsmobility 	totalTime 	113.8
scalar RSUExampleScenario.node[98].veinsmobility 	stopTime 	350
scalar RSUExampleScenario.node[98].veinsmobility 	minSpeed 	0
scalar RSUExampleScenario.node[98].veinsmobility 	maxSpeed 	7.6038688756836
scalar RSUExampleScenario.node[98].veinsmobility 	totalDistance 	21.411430453012
scalar RSUExampleScenario.node[98].veinsmobility 	totalCO2Emission 	119.06092940359
scalar RSUExampleScenario.node[99].veinsmobility 	startTime 	238.6
scalar RSUExampleScenario.node[99].veinsmobility 	totalTime 	111.4
scalar RSUExampleScenario.node[99].veinsmobility 	stopTime 	350
scalar RSUExampleScenario.node[99].veinsmobility 	minSpeed 	0
scalar RSUExampleScenario.node[99].veinsmobility 	maxSpeed 	2.9687674140646
scalar RSUExampleScenario.node[99].veinsmobility 	totalDistance 	3.1864112563051
scalar RSUExampleScenario.node[99].veinsmobility 	totalCO2Emission 	109.71112771168
