version 2
run statistic4-1379-20150324-20:47:22-6580
attr c 20
attr configname statistic4
attr datetime 20150324-20:47:22
attr experiment statistic4
attr inifile omnetpp.ini
attr iterationvars "$p=1/8, $c=20"
attr iterationvars2 "$p=1/8, $c=20, $repetition=79"
attr measurement "$p=1/8, $c=20"
attr network RSUExampleScenario
attr p 1/8
attr processid 6580
attr repetition 79
attr replication #79
attr resultdir results
attr runnumber 1379
attr seedset 1379

scalar . 	c 	20
scalar RSUExampleScenario.rsu[0].appl 	NumberofCH 	16
scalar RSUExampleScenario.rsu[0].appl 	NumberofON 	84
scalar RSUExampleScenario.rsu[0].appl 	NumberofFN 	0
scalar RSUExampleScenario.rsu[0].appl 	meanClusterNodes 	5.25
scalar RSUExampleScenario.rsu[0].appl 	varClusterNodes 	3.5619517121938
scalar RSUExampleScenario.rsu[0].appl 	sumCHutility 	583.05913419981
scalar RSUExampleScenario.rsu[0].appl 	meanCHutility 	36.441195887488
scalar RSUExampleScenario.rsu[0].appl 	varCHutility 	9.5426494571027
scalar RSUExampleScenario.rsu[0].appl 	sumDiffCHutility 	-35.092508003
scalar RSUExampleScenario.rsu[0].appl 	meanDiffCHutility 	-2.1932817501875
scalar RSUExampleScenario.rsu[0].appl 	varDiffCHutility 	9.5451168618655
scalar RSUExampleScenario.rsu[0].appl 	expectedCHutility 	547.96662619681
scalar RSUExampleScenario.rsu[0].appl 	meanExpectedCHutility 	34.2479141373
scalar RSUExampleScenario.rsu[0].appl 	varExpectedCHutility 	0.6548030482005
scalar RSUExampleScenario.node[0].veinsmobility 	startTime 	0.1
scalar RSUExampleScenario.node[0].veinsmobility 	totalTime 	349.9
scalar RSUExampleScenario.node[0].veinsmobility 	stopTime 	350
scalar RSUExampleScenario.node[0].veinsmobility 	minSpeed 	0
scalar RSUExampleScenario.node[0].veinsmobility 	maxSpeed 	13.999832717632
scalar RSUExampleScenario.node[0].veinsmobility 	totalDistance 	3132.6719306869
scalar RSUExampleScenario.node[0].veinsmobility 	totalCO2Emission 	742.37504816188
scalar RSUExampleScenario.node[1].veinsmobility 	startTime 	2.5
scalar RSUExampleScenario.node[1].veinsmobility 	totalTime 	347.5
scalar RSUExampleScenario.node[1].veinsmobility 	stopTime 	350
scalar RSUExampleScenario.node[1].veinsmobility 	minSpeed 	0
scalar RSUExampleScenario.node[1].veinsmobility 	maxSpeed 	13.999981725826
scalar RSUExampleScenario.node[1].veinsmobility 	totalDistance 	3081.2154320698
scalar RSUExampleScenario.node[1].veinsmobility 	totalCO2Emission 	731.52528954301
scalar RSUExampleScenario.node[10].veinsmobility 	startTime 	24.2
scalar RSUExampleScenario.node[10].veinsmobility 	totalTime 	325.8
scalar RSUExampleScenario.node[10].veinsmobility 	stopTime 	350
scalar RSUExampleScenario.node[10].veinsmobility 	minSpeed 	0
scalar RSUExampleScenario.node[10].veinsmobility 	maxSpeed 	13.999994855835
scalar RSUExampleScenario.node[10].veinsmobility 	totalDistance 	2793.8288292032
scalar RSUExampleScenario.node[10].veinsmobility 	totalCO2Emission 	662.25354361666
scalar RSUExampleScenario.node[11].veinsmobility 	startTime 	26.6
scalar RSUExampleScenario.node[11].veinsmobility 	totalTime 	323.4
scalar RSUExampleScenario.node[11].veinsmobility 	stopTime 	350
scalar RSUExampleScenario.node[11].veinsmobility 	minSpeed 	0
scalar RSUExampleScenario.node[11].veinsmobility 	maxSpeed 	13.999981139293
scalar RSUExampleScenario.node[11].veinsmobility 	totalDistance 	2753.1729103431
scalar RSUExampleScenario.node[11].veinsmobility 	totalCO2Emission 	658.38881184084
scalar RSUExampleScenario.node[12].veinsmobility 	startTime 	29
scalar RSUExampleScenario.node[12].veinsmobility 	totalTime 	321
scalar RSUExampleScenario.node[12].veinsmobility 	stopTime 	350
scalar RSUExampleScenario.node[12].veinsmobility 	minSpeed 	0
scalar RSUExampleScenario.node[12].veinsmobility 	maxSpeed 	13.999939387818
scalar RSUExampleScenario.node[12].veinsmobility 	totalDistance 	2722.596719655
scalar RSUExampleScenario.node[12].veinsmobility 	totalCO2Emission 	649.95203363832
scalar RSUExampleScenario.node[13].veinsmobility 	startTime 	31.4
scalar RSUExampleScenario.node[13].veinsmobility 	totalTime 	318.6
scalar RSUExampleScenario.node[13].veinsmobility 	stopTime 	350
scalar RSUExampleScenario.node[13].veinsmobility 	minSpeed 	0
scalar RSUExampleScenario.node[13].veinsmobility 	maxSpeed 	13.99996161605
scalar RSUExampleScenario.node[13].veinsmobility 	totalDistance 	2678.5216798986
scalar RSUExampleScenario.node[13].veinsmobility 	totalCO2Emission 	645.03582340143
scalar RSUExampleScenario.node[14].veinsmobility 	startTime 	33.8
scalar RSUExampleScenario.node[14].veinsmobility 	totalTime 	316.2
scalar RSUExampleScenario.node[14].veinsmobility 	stopTime 	350
scalar RSUExampleScenario.node[14].veinsmobility 	minSpeed 	0
scalar RSUExampleScenario.node[14].veinsmobility 	maxSpeed 	13.999951304081
scalar RSUExampleScenario.node[14].veinsmobility 	totalDistance 	2651.6146990803
scalar RSUExampleScenario.node[14].veinsmobility 	totalCO2Emission 	639.40423910847
scalar RSUExampleScenario.node[15].veinsmobility 	startTime 	36.2
scalar RSUExampleScenario.node[15].veinsmobility 	totalTime 	313.8
scalar RSUExampleScenario.node[15].veinsmobility 	stopTime 	350
scalar RSUExampleScenario.node[15].veinsmobility 	minSpeed 	0
scalar RSUExampleScenario.node[15].veinsmobility 	maxSpeed 	13.999735128598
scalar RSUExampleScenario.node[15].veinsmobility 	totalDistance 	2610.860031051
scalar RSUExampleScenario.node[15].veinsmobility 	totalCO2Emission 	632.84059588906
scalar RSUExampleScenario.node[16].veinsmobility 	startTime 	38.6
scalar RSUExampleScenario.node[16].veinsmobility 	totalTime 	311.4
scalar RSUExampleScenario.node[16].veinsmobility 	stopTime 	350
scalar RSUExampleScenario.node[16].veinsmobility 	minSpeed 	0
scalar RSUExampleScenario.node[16].veinsmobility 	maxSpeed 	13.999893032128
scalar RSUExampleScenario.node[16].veinsmobility 	totalDistance 	2581.8809456149
scalar RSUExampleScenario.node[16].veinsmobility 	totalCO2Emission 	626.6561250452
scalar RSUExampleScenario.node[17].veinsmobility 	startTime 	41
scalar RSUExampleScenario.node[17].veinsmobility 	totalTime 	309
scalar RSUExampleScenario.node[17].veinsmobility 	stopTime 	350
scalar RSUExampleScenario.node[17].veinsmobility 	minSpeed 	0
scalar RSUExampleScenario.node[17].veinsmobility 	maxSpeed 	13.999936611517
scalar RSUExampleScenario.node[17].veinsmobility 	totalDistance 	2539.3020906794
scalar RSUExampleScenario.node[17].veinsmobility 	totalCO2Emission 	620.09096401905
scalar RSUExampleScenario.node[18].veinsmobility 	startTime 	43.4
scalar RSUExampleScenario.node[18].veinsmobility 	totalTime 	306.6
scalar RSUExampleScenario.node[18].veinsmobility 	stopTime 	350
scalar RSUExampleScenario.node[18].veinsmobility 	minSpeed 	0
scalar RSUExampleScenario.node[18].veinsmobility 	maxSpeed 	13.999720515246
scalar RSUExampleScenario.node[18].veinsmobility 	totalDistance 	2507.8919684324
scalar RSUExampleScenario.node[18].veinsmobility 	totalCO2Emission 	616.33246367445
scalar RSUExampleScenario.node[19].veinsmobility 	startTime 	45.8
scalar RSUExampleScenario.node[19].veinsmobility 	totalTime 	304.2
scalar RSUExampleScenario.node[19].veinsmobility 	stopTime 	350
scalar RSUExampleScenario.node[19].veinsmobility 	minSpeed 	0
scalar RSUExampleScenario.node[19].veinsmobility 	maxSpeed 	13.999933236758
scalar RSUExampleScenario.node[19].veinsmobility 	totalDistance 	2470.372936399
scalar RSUExampleScenario.node[19].veinsmobility 	totalCO2Emission 	609.92774599595
scalar RSUExampleScenario.node[2].veinsmobility 	startTime 	4.9
scalar RSUExampleScenario.node[2].veinsmobility 	totalTime 	345.1
scalar RSUExampleScenario.node[2].veinsmobility 	stopTime 	350
scalar RSUExampleScenario.node[2].veinsmobility 	minSpeed 	0
scalar RSUExampleScenario.node[2].veinsmobility 	maxSpeed 	13.999960404937
scalar RSUExampleScenario.node[2].veinsmobility 	totalDistance 	3039.6307859095
scalar RSUExampleScenario.node[2].veinsmobility 	totalCO2Emission 	725.74271173757
scalar RSUExampleScenario.node[20].veinsmobility 	startTime 	48.3
scalar RSUExampleScenario.node[20].veinsmobility 	totalTime 	301.7
scalar RSUExampleScenario.node[20].veinsmobility 	stopTime 	350
scalar RSUExampleScenario.node[20].veinsmobility 	minSpeed 	0
scalar RSUExampleScenario.node[20].veinsmobility 	maxSpeed 	13.99977560237
scalar RSUExampleScenario.node[20].veinsmobility 	totalDistance 	2440.9510887661
scalar RSUExampleScenario.node[20].veinsmobility 	totalCO2Emission 	602.56677379067
scalar RSUExampleScenario.node[21].veinsmobility 	startTime 	50.7
scalar RSUExampleScenario.node[21].veinsmobility 	totalTime 	299.3
scalar RSUExampleScenario.node[21].veinsmobility 	stopTime 	350
scalar RSUExampleScenario.node[21].veinsmobility 	minSpeed 	0
scalar RSUExampleScenario.node[21].veinsmobility 	maxSpeed 	13.999981407286
scalar RSUExampleScenario.node[21].veinsmobility 	totalDistance 	2401.9585786072
scalar RSUExampleScenario.node[21].veinsmobility 	totalCO2Emission 	598.64524370483
scalar RSUExampleScenario.node[22].veinsmobility 	startTime 	53.1
scalar RSUExampleScenario.node[22].veinsmobility 	totalTime 	296.9
scalar RSUExampleScenario.node[22].veinsmobility 	stopTime 	350
scalar RSUExampleScenario.node[22].veinsmobility 	minSpeed 	0
scalar RSUExampleScenario.node[22].veinsmobility 	maxSpeed 	13.999516436271
scalar RSUExampleScenario.node[22].veinsmobility 	totalDistance 	2373.6522273457
scalar RSUExampleScenario.node[22].veinsmobility 	totalCO2Emission 	587.91376803609
scalar RSUExampleScenario.node[23].veinsmobility 	startTime 	55.5
scalar RSUExampleScenario.node[23].veinsmobility 	totalTime 	294.5
scalar RSUExampleScenario.node[23].veinsmobility 	stopTime 	350
scalar RSUExampleScenario.node[23].veinsmobility 	minSpeed 	0
scalar RSUExampleScenario.node[23].veinsmobility 	maxSpeed 	13.999966740541
scalar RSUExampleScenario.node[23].veinsmobility 	totalDistance 	2335.9265584379
scalar RSUExampleScenario.node[23].veinsmobility 	totalCO2Emission 	584.66315023831
scalar RSUExampleScenario.node[24].veinsmobility 	startTime 	57.9
scalar RSUExampleScenario.node[24].veinsmobility 	totalTime 	292.1
scalar RSUExampleScenario.node[24].veinsmobility 	stopTime 	350
scalar RSUExampleScenario.node[24].veinsmobility 	minSpeed 	0
scalar RSUExampleScenario.node[24].veinsmobility 	maxSpeed 	13.999987354067
scalar RSUExampleScenario.node[24].veinsmobility 	totalDistance 	2306.6998142539
scalar RSUExampleScenario.node[24].veinsmobility 	totalCO2Emission 	579.26588766681
scalar RSUExampleScenario.node[25].veinsmobility 	startTime 	60.3
scalar RSUExampleScenario.node[25].veinsmobility 	totalTime 	289.7
scalar RSUExampleScenario.node[25].veinsmobility 	stopTime 	350
scalar RSUExampleScenario.node[25].veinsmobility 	minSpeed 	0
scalar RSUExampleScenario.node[25].veinsmobility 	maxSpeed 	13.999943137537
scalar RSUExampleScenario.node[25].veinsmobility 	totalDistance 	2266.7815423748
scalar RSUExampleScenario.node[25].veinsmobility 	totalCO2Emission 	573.73039575402
scalar RSUExampleScenario.node[26].veinsmobility 	startTime 	62.7
scalar RSUExampleScenario.node[26].veinsmobility 	totalTime 	287.3
scalar RSUExampleScenario.node[26].veinsmobility 	stopTime 	350
scalar RSUExampleScenario.node[26].veinsmobility 	minSpeed 	0
scalar RSUExampleScenario.node[26].veinsmobility 	maxSpeed 	13.999872153697
scalar RSUExampleScenario.node[26].veinsmobility 	totalDistance 	2237.7906206087
scalar RSUExampleScenario.node[26].veinsmobility 	totalCO2Emission 	568.86320350058
scalar RSUExampleScenario.node[27].veinsmobility 	startTime 	65.1
scalar RSUExampleScenario.node[27].veinsmobility 	totalTime 	284.9
scalar RSUExampleScenario.node[27].veinsmobility 	stopTime 	350
scalar RSUExampleScenario.node[27].veinsmobility 	minSpeed 	0
scalar RSUExampleScenario.node[27].veinsmobility 	maxSpeed 	13.999881116259
scalar RSUExampleScenario.node[27].veinsmobility 	totalDistance 	2200.1708526419
scalar RSUExampleScenario.node[27].veinsmobility 	totalCO2Emission 	561.58486010636
scalar RSUExampleScenario.node[28].veinsmobility 	startTime 	67.5
scalar RSUExampleScenario.node[28].veinsmobility 	totalTime 	282.5
scalar RSUExampleScenario.node[28].veinsmobility 	stopTime 	350
scalar RSUExampleScenario.node[28].veinsmobility 	minSpeed 	0
scalar RSUExampleScenario.node[28].veinsmobility 	maxSpeed 	13.999997210018
scalar RSUExampleScenario.node[28].veinsmobility 	totalDistance 	2168.4473886448
scalar RSUExampleScenario.node[28].veinsmobility 	totalCO2Emission 	560.11574360075
scalar RSUExampleScenario.node[29].veinsmobility 	startTime 	69.9
scalar RSUExampleScenario.node[29].veinsmobility 	totalTime 	280.1
scalar RSUExampleScenario.node[29].veinsmobility 	stopTime 	350
scalar RSUExampleScenario.node[29].veinsmobility 	minSpeed 	0
scalar RSUExampleScenario.node[29].veinsmobility 	maxSpeed 	13.999826483971
scalar RSUExampleScenario.node[29].veinsmobility 	totalDistance 	2131.7268103714
scalar RSUExampleScenario.node[29].veinsmobility 	totalCO2Emission 	548.30669525972
scalar RSUExampleScenario.node[3].veinsmobility 	startTime 	7.3
scalar RSUExampleScenario.node[3].veinsmobility 	totalTime 	342.7
scalar RSUExampleScenario.node[3].veinsmobility 	stopTime 	350
scalar RSUExampleScenario.node[3].veinsmobility 	minSpeed 	0
scalar RSUExampleScenario.node[3].veinsmobility 	maxSpeed 	13.999981311245
scalar RSUExampleScenario.node[3].veinsmobility 	totalDistance 	2993.7944531269
scalar RSUExampleScenario.node[3].veinsmobility 	totalCO2Emission 	722.38378068893
scalar RSUExampleScenario.node[30].veinsmobility 	startTime 	72.4
scalar RSUExampleScenario.node[30].veinsmobility 	totalTime 	277.6
scalar RSUExampleScenario.node[30].veinsmobility 	stopTime 	350
scalar RSUExampleScenario.node[30].veinsmobility 	minSpeed 	0
scalar RSUExampleScenario.node[30].veinsmobility 	maxSpeed 	13.999927180468
scalar RSUExampleScenario.node[30].veinsmobility 	totalDistance 	2100.447929148
scalar RSUExampleScenario.node[30].veinsmobility 	totalCO2Emission 	546.60222700412
scalar RSUExampleScenario.node[31].veinsmobility 	startTime 	74.8
scalar RSUExampleScenario.node[31].veinsmobility 	totalTime 	275.2
scalar RSUExampleScenario.node[31].veinsmobility 	stopTime 	350
scalar RSUExampleScenario.node[31].veinsmobility 	minSpeed 	0
scalar RSUExampleScenario.node[31].veinsmobility 	maxSpeed 	13.999987767588
scalar RSUExampleScenario.node[31].veinsmobility 	totalDistance 	2065.4796633274
scalar RSUExampleScenario.node[31].veinsmobility 	totalCO2Emission 	541.2834629064
scalar RSUExampleScenario.node[32].veinsmobility 	startTime 	77.2
scalar RSUExampleScenario.node[32].veinsmobility 	totalTime 	272.8
scalar RSUExampleScenario.node[32].veinsmobility 	stopTime 	350
scalar RSUExampleScenario.node[32].veinsmobility 	minSpeed 	0
scalar RSUExampleScenario.node[32].veinsmobility 	maxSpeed 	13.999982992753
scalar RSUExampleScenario.node[32].veinsmobility 	totalDistance 	2033.1691910899
scalar RSUExampleScenario.node[32].veinsmobility 	totalCO2Emission 	535.31611902916
scalar RSUExampleScenario.node[33].veinsmobility 	startTime 	79.6
scalar RSUExampleScenario.node[33].veinsmobility 	totalTime 	270.4
scalar RSUExampleScenario.node[33].veinsmobility 	stopTime 	350
scalar RSUExampleScenario.node[33].veinsmobility 	minSpeed 	0
scalar RSUExampleScenario.node[33].veinsmobility 	maxSpeed 	13.999971823867
scalar RSUExampleScenario.node[33].veinsmobility 	totalDistance 	1996.3711035492
scalar RSUExampleScenario.node[33].veinsmobility 	totalCO2Emission 	529.07956179114
scalar RSUExampleScenario.node[34].veinsmobility 	startTime 	82
scalar RSUExampleScenario.node[34].veinsmobility 	totalTime 	268
scalar RSUExampleScenario.node[34].veinsmobility 	stopTime 	350
scalar RSUExampleScenario.node[34].veinsmobility 	minSpeed 	0
scalar RSUExampleScenario.node[34].veinsmobility 	maxSpeed 	13.999961718235
scalar RSUExampleScenario.node[34].veinsmobility 	totalDistance 	1962.4458599633
scalar RSUExampleScenario.node[34].veinsmobility 	totalCO2Emission 	524.05854288774
scalar RSUExampleScenario.node[35].veinsmobility 	startTime 	84.4
scalar RSUExampleScenario.node[35].veinsmobility 	totalTime 	265.6
scalar RSUExampleScenario.node[35].veinsmobility 	stopTime 	350
scalar RSUExampleScenario.node[35].veinsmobility 	minSpeed 	0
scalar RSUExampleScenario.node[35].veinsmobility 	maxSpeed 	13.999861736274
scalar RSUExampleScenario.node[35].veinsmobility 	totalDistance 	1929.0360998323
scalar RSUExampleScenario.node[35].veinsmobility 	totalCO2Emission 	517.20028281547
scalar RSUExampleScenario.node[36].veinsmobility 	startTime 	86.8
scalar RSUExampleScenario.node[36].veinsmobility 	totalTime 	263.2
scalar RSUExampleScenario.node[36].veinsmobility 	stopTime 	350
scalar RSUExampleScenario.node[36].veinsmobility 	minSpeed 	0
scalar RSUExampleScenario.node[36].veinsmobility 	maxSpeed 	13.999836496166
scalar RSUExampleScenario.node[36].veinsmobility 	totalDistance 	1897.6134084022
scalar RSUExampleScenario.node[36].veinsmobility 	totalCO2Emission 	510.87224247554
scalar RSUExampleScenario.node[37].veinsmobility 	startTime 	89.2
scalar RSUExampleScenario.node[37].veinsmobility 	totalTime 	260.8
scalar RSUExampleScenario.node[37].veinsmobility 	stopTime 	350
scalar RSUExampleScenario.node[37].veinsmobility 	minSpeed 	0
scalar RSUExampleScenario.node[37].veinsmobility 	maxSpeed 	13.999961669624
scalar RSUExampleScenario.node[37].veinsmobility 	totalDistance 	1863.3809742635
scalar RSUExampleScenario.node[37].veinsmobility 	totalCO2Emission 	508.19844839214
scalar RSUExampleScenario.node[38].veinsmobility 	startTime 	91.6
scalar RSUExampleScenario.node[38].veinsmobility 	totalTime 	258.4
scalar RSUExampleScenario.node[38].veinsmobility 	stopTime 	350
scalar RSUExampleScenario.node[38].veinsmobility 	minSpeed 	0
scalar RSUExampleScenario.node[38].veinsmobility 	maxSpeed 	13.999891027298
scalar RSUExampleScenario.node[38].veinsmobility 	totalDistance 	1830.3766533608
scalar RSUExampleScenario.node[38].veinsmobility 	totalCO2Emission 	499.97594472693
scalar RSUExampleScenario.node[39].veinsmobility 	startTime 	94
scalar RSUExampleScenario.node[39].veinsmobility 	totalTime 	256
scalar RSUExampleScenario.node[39].veinsmobility 	stopTime 	350
scalar RSUExampleScenario.node[39].veinsmobility 	minSpeed 	0
scalar RSUExampleScenario.node[39].veinsmobility 	maxSpeed 	13.99994175435
scalar RSUExampleScenario.node[39].veinsmobility 	totalDistance 	1796.3667587986
scalar RSUExampleScenario.node[39].veinsmobility 	totalCO2Emission 	496.59609364291
scalar RSUExampleScenario.node[4].veinsmobility 	startTime 	9.7
scalar RSUExampleScenario.node[4].veinsmobility 	totalTime 	340.3
scalar RSUExampleScenario.node[4].veinsmobility 	stopTime 	350
scalar RSUExampleScenario.node[4].veinsmobility 	minSpeed 	0
scalar RSUExampleScenario.node[4].veinsmobility 	maxSpeed 	13.99979605248
scalar RSUExampleScenario.node[4].veinsmobility 	totalDistance 	2950.0197481262
scalar RSUExampleScenario.node[4].veinsmobility 	totalCO2Emission 	698.75738968368
scalar RSUExampleScenario.node[40].veinsmobility 	startTime 	96.5
scalar RSUExampleScenario.node[40].veinsmobility 	totalTime 	253.5
scalar RSUExampleScenario.node[40].veinsmobility 	stopTime 	350
scalar RSUExampleScenario.node[40].veinsmobility 	minSpeed 	0
scalar RSUExampleScenario.node[40].veinsmobility 	maxSpeed 	13.999769449888
scalar RSUExampleScenario.node[40].veinsmobility 	totalDistance 	1762.3525766929
scalar RSUExampleScenario.node[40].veinsmobility 	totalCO2Emission 	489.78302822008
scalar RSUExampleScenario.node[41].veinsmobility 	startTime 	98.9
scalar RSUExampleScenario.node[41].veinsmobility 	totalTime 	251.1
scalar RSUExampleScenario.node[41].veinsmobility 	stopTime 	350
scalar RSUExampleScenario.node[41].veinsmobility 	minSpeed 	0
scalar RSUExampleScenario.node[41].veinsmobility 	maxSpeed 	13.999805984888
scalar RSUExampleScenario.node[41].veinsmobility 	totalDistance 	1729.6275649956
scalar RSUExampleScenario.node[41].veinsmobility 	totalCO2Emission 	485.85445013906
scalar RSUExampleScenario.node[42].veinsmobility 	startTime 	101.3
scalar RSUExampleScenario.node[42].veinsmobility 	totalTime 	248.7
scalar RSUExampleScenario.node[42].veinsmobility 	stopTime 	350
scalar RSUExampleScenario.node[42].veinsmobility 	minSpeed 	0
scalar RSUExampleScenario.node[42].veinsmobility 	maxSpeed 	13.999618771689
scalar RSUExampleScenario.node[42].veinsmobility 	totalDistance 	1695.0439361566
scalar RSUExampleScenario.node[42].veinsmobility 	totalCO2Emission 	476.01225542387
scalar RSUExampleScenario.node[43].veinsmobility 	startTime 	103.7
scalar RSUExampleScenario.node[43].veinsmobility 	totalTime 	246.3
scalar RSUExampleScenario.node[43].veinsmobility 	stopTime 	350
scalar RSUExampleScenario.node[43].veinsmobility 	minSpeed 	0
scalar RSUExampleScenario.node[43].veinsmobility 	maxSpeed 	13.999724791537
scalar RSUExampleScenario.node[43].veinsmobility 	totalDistance 	1662.702900445
scalar RSUExampleScenario.node[43].veinsmobility 	totalCO2Emission 	471.4243207707
scalar RSUExampleScenario.node[44].veinsmobility 	startTime 	106.1
scalar RSUExampleScenario.node[44].veinsmobility 	totalTime 	243.9
scalar RSUExampleScenario.node[44].veinsmobility 	stopTime 	350
scalar RSUExampleScenario.node[44].veinsmobility 	minSpeed 	0
scalar RSUExampleScenario.node[44].veinsmobility 	maxSpeed 	13.999880128887
scalar RSUExampleScenario.node[44].veinsmobility 	totalDistance 	1626.6361394464
scalar RSUExampleScenario.node[44].veinsmobility 	totalCO2Emission 	469.62698243842
scalar RSUExampleScenario.node[45].veinsmobility 	startTime 	108.5
scalar RSUExampleScenario.node[45].veinsmobility 	totalTime 	241.5
scalar RSUExampleScenario.node[45].veinsmobility 	stopTime 	350
scalar RSUExampleScenario.node[45].veinsmobility 	minSpeed 	0
scalar RSUExampleScenario.node[45].veinsmobility 	maxSpeed 	13.999922510299
scalar RSUExampleScenario.node[45].veinsmobility 	totalDistance 	1593.4646840336
scalar RSUExampleScenario.node[45].veinsmobility 	totalCO2Emission 	461.10941123926
scalar RSUExampleScenario.node[46].veinsmobility 	startTime 	110.9
scalar RSUExampleScenario.node[46].veinsmobility 	totalTime 	239.1
scalar RSUExampleScenario.node[46].veinsmobility 	stopTime 	350
scalar RSUExampleScenario.node[46].veinsmobility 	minSpeed 	0
scalar RSUExampleScenario.node[46].veinsmobility 	maxSpeed 	13.999902640185
scalar RSUExampleScenario.node[46].veinsmobility 	totalDistance 	1560.349955741
scalar RSUExampleScenario.node[46].veinsmobility 	totalCO2Emission 	454.81476469482
scalar RSUExampleScenario.node[47].veinsmobility 	startTime 	113.3
scalar RSUExampleScenario.node[47].veinsmobility 	totalTime 	236.7
scalar RSUExampleScenario.node[47].veinsmobility 	stopTime 	350
scalar RSUExampleScenario.node[47].veinsmobility 	minSpeed 	0
scalar RSUExampleScenario.node[47].veinsmobility 	maxSpeed 	13.999808525098
scalar RSUExampleScenario.node[47].veinsmobility 	totalDistance 	1526.7620742725
scalar RSUExampleScenario.node[47].veinsmobility 	totalCO2Emission 	448.89740146333
scalar RSUExampleScenario.node[48].veinsmobility 	startTime 	115.7
scalar RSUExampleScenario.node[48].veinsmobility 	totalTime 	234.3
scalar RSUExampleScenario.node[48].veinsmobility 	stopTime 	350
scalar RSUExampleScenario.node[48].veinsmobility 	minSpeed 	0
scalar RSUExampleScenario.node[48].veinsmobility 	maxSpeed 	13.999983662099
scalar RSUExampleScenario.node[48].veinsmobility 	totalDistance 	1494.7437904977
scalar RSUExampleScenario.node[48].veinsmobility 	totalCO2Emission 	445.06888638971
scalar RSUExampleScenario.node[49].veinsmobility 	startTime 	118.1
scalar RSUExampleScenario.node[49].veinsmobility 	totalTime 	231.9
scalar RSUExampleScenario.node[49].veinsmobility 	stopTime 	350
scalar RSUExampleScenario.node[49].veinsmobility 	minSpeed 	0
scalar RSUExampleScenario.node[49].veinsmobility 	maxSpeed 	13.999277220496
scalar RSUExampleScenario.node[49].veinsmobility 	totalDistance 	1460.3796280687
scalar RSUExampleScenario.node[49].veinsmobility 	totalCO2Emission 	435.05575011681
scalar RSUExampleScenario.node[5].veinsmobility 	startTime 	12.1
scalar RSUExampleScenario.node[5].veinsmobility 	totalTime 	337.9
scalar RSUExampleScenario.node[5].veinsmobility 	stopTime 	350
scalar RSUExampleScenario.node[5].veinsmobility 	minSpeed 	0
scalar RSUExampleScenario.node[5].veinsmobility 	maxSpeed 	13.999917486995
scalar RSUExampleScenario.node[5].veinsmobility 	totalDistance 	2913.9187496769
scalar RSUExampleScenario.node[5].veinsmobility 	totalCO2Emission 	685.27590165145
scalar RSUExampleScenario.node[50].veinsmobility 	startTime 	120.6
scalar RSUExampleScenario.node[50].veinsmobility 	totalTime 	229.4
scalar RSUExampleScenario.node[50].veinsmobility 	stopTime 	350
scalar RSUExampleScenario.node[50].veinsmobility 	minSpeed 	0
scalar RSUExampleScenario.node[50].veinsmobility 	maxSpeed 	13.999908723384
scalar RSUExampleScenario.node[50].veinsmobility 	totalDistance 	1428.2219929776
scalar RSUExampleScenario.node[50].veinsmobility 	totalCO2Emission 	434.31363888173
scalar RSUExampleScenario.node[51].veinsmobility 	startTime 	123
scalar RSUExampleScenario.node[51].veinsmobility 	totalTime 	227
scalar RSUExampleScenario.node[51].veinsmobility 	stopTime 	350
scalar RSUExampleScenario.node[51].veinsmobility 	minSpeed 	0
scalar RSUExampleScenario.node[51].veinsmobility 	maxSpeed 	13.999852445275
scalar RSUExampleScenario.node[51].veinsmobility 	totalDistance 	1392.9067953331
scalar RSUExampleScenario.node[51].veinsmobility 	totalCO2Emission 	427.1591159588
scalar RSUExampleScenario.node[52].veinsmobility 	startTime 	125.4
scalar RSUExampleScenario.node[52].veinsmobility 	totalTime 	224.6
scalar RSUExampleScenario.node[52].veinsmobility 	stopTime 	350
scalar RSUExampleScenario.node[52].veinsmobility 	minSpeed 	0
scalar RSUExampleScenario.node[52].veinsmobility 	maxSpeed 	13.999787363752
scalar RSUExampleScenario.node[52].veinsmobility 	totalDistance 	1359.9087603052
scalar RSUExampleScenario.node[52].veinsmobility 	totalCO2Emission 	421.41653688855
scalar RSUExampleScenario.node[53].veinsmobility 	startTime 	127.8
scalar RSUExampleScenario.node[53].veinsmobility 	totalTime 	222.2
scalar RSUExampleScenario.node[53].veinsmobility 	stopTime 	350
scalar RSUExampleScenario.node[53].veinsmobility 	minSpeed 	0
scalar RSUExampleScenario.node[53].veinsmobility 	maxSpeed 	13.999886552631
scalar RSUExampleScenario.node[53].veinsmobility 	totalDistance 	1325.7998513124
scalar RSUExampleScenario.node[53].veinsmobility 	totalCO2Emission 	416.32393327737
scalar RSUExampleScenario.node[54].veinsmobility 	startTime 	130.2
scalar RSUExampleScenario.node[54].veinsmobility 	totalTime 	219.8
scalar RSUExampleScenario.node[54].veinsmobility 	stopTime 	350
scalar RSUExampleScenario.node[54].veinsmobility 	minSpeed 	0
scalar RSUExampleScenario.node[54].veinsmobility 	maxSpeed 	13.999674334959
scalar RSUExampleScenario.node[54].veinsmobility 	totalDistance 	1292.0919958639
scalar RSUExampleScenario.node[54].veinsmobility 	totalCO2Emission 	410.4953540591
scalar RSUExampleScenario.node[55].veinsmobility 	startTime 	132.6
scalar RSUExampleScenario.node[55].veinsmobility 	totalTime 	217.4
scalar RSUExampleScenario.node[55].veinsmobility 	stopTime 	350
scalar RSUExampleScenario.node[55].veinsmobility 	minSpeed 	0
scalar RSUExampleScenario.node[55].veinsmobility 	maxSpeed 	13.999825540578
scalar RSUExampleScenario.node[55].veinsmobility 	totalDistance 	1259.5980641604
scalar RSUExampleScenario.node[55].veinsmobility 	totalCO2Emission 	404.57202303153
scalar RSUExampleScenario.node[56].veinsmobility 	startTime 	135
scalar RSUExampleScenario.node[56].veinsmobility 	totalTime 	215
scalar RSUExampleScenario.node[56].veinsmobility 	stopTime 	350
scalar RSUExampleScenario.node[56].veinsmobility 	minSpeed 	0
scalar RSUExampleScenario.node[56].veinsmobility 	maxSpeed 	13.999722385262
scalar RSUExampleScenario.node[56].veinsmobility 	totalDistance 	1225.3357589713
scalar RSUExampleScenario.node[56].veinsmobility 	totalCO2Emission 	400.61808447407
scalar RSUExampleScenario.node[57].veinsmobility 	startTime 	137.4
scalar RSUExampleScenario.node[57].veinsmobility 	totalTime 	212.6
scalar RSUExampleScenario.node[57].veinsmobility 	stopTime 	350
scalar RSUExampleScenario.node[57].veinsmobility 	minSpeed 	0
scalar RSUExampleScenario.node[57].veinsmobility 	maxSpeed 	13.999931071054
scalar RSUExampleScenario.node[57].veinsmobility 	totalDistance 	1193.5260382109
scalar RSUExampleScenario.node[57].veinsmobility 	totalCO2Emission 	393.93720268035
scalar RSUExampleScenario.node[58].veinsmobility 	startTime 	139.8
scalar RSUExampleScenario.node[58].veinsmobility 	totalTime 	210.2
scalar RSUExampleScenario.node[58].veinsmobility 	stopTime 	350
scalar RSUExampleScenario.node[58].veinsmobility 	minSpeed 	0
scalar RSUExampleScenario.node[58].veinsmobility 	maxSpeed 	13.999640488452
scalar RSUExampleScenario.node[58].veinsmobility 	totalDistance 	1159.2587786122
scalar RSUExampleScenario.node[58].veinsmobility 	totalCO2Emission 	389.21661054266
scalar RSUExampleScenario.node[59].veinsmobility 	startTime 	142.2
scalar RSUExampleScenario.node[59].veinsmobility 	totalTime 	207.8
scalar RSUExampleScenario.node[59].veinsmobility 	stopTime 	350
scalar RSUExampleScenario.node[59].veinsmobility 	minSpeed 	0
scalar RSUExampleScenario.node[59].veinsmobility 	maxSpeed 	13.999871300564
scalar RSUExampleScenario.node[59].veinsmobility 	totalDistance 	1125.7661083012
scalar RSUExampleScenario.node[59].veinsmobility 	totalCO2Emission 	381.28360032524
scalar RSUExampleScenario.node[6].veinsmobility 	startTime 	14.5
scalar RSUExampleScenario.node[6].veinsmobility 	totalTime 	335.5
scalar RSUExampleScenario.node[6].veinsmobility 	stopTime 	350
scalar RSUExampleScenario.node[6].veinsmobility 	minSpeed 	0
scalar RSUExampleScenario.node[6].veinsmobility 	maxSpeed 	13.999969318374
scalar RSUExampleScenario.node[6].veinsmobility 	totalDistance 	2906.0051359677
scalar RSUExampleScenario.node[6].veinsmobility 	totalCO2Emission 	681.35112010569
scalar RSUExampleScenario.node[60].veinsmobility 	startTime 	144.7
scalar RSUExampleScenario.node[60].veinsmobility 	totalTime 	205.3
scalar RSUExampleScenario.node[60].veinsmobility 	stopTime 	350
scalar RSUExampleScenario.node[60].veinsmobility 	minSpeed 	0
scalar RSUExampleScenario.node[60].veinsmobility 	maxSpeed 	13.999969784229
scalar RSUExampleScenario.node[60].veinsmobility 	totalDistance 	1091.1862512974
scalar RSUExampleScenario.node[60].veinsmobility 	totalCO2Emission 	373.66561669307
scalar RSUExampleScenario.node[61].veinsmobility 	startTime 	147.1
scalar RSUExampleScenario.node[61].veinsmobility 	totalTime 	202.9
scalar RSUExampleScenario.node[61].veinsmobility 	stopTime 	350
scalar RSUExampleScenario.node[61].veinsmobility 	minSpeed 	0
scalar RSUExampleScenario.node[61].veinsmobility 	maxSpeed 	13.999759463996
scalar RSUExampleScenario.node[61].veinsmobility 	totalDistance 	1055.9115627613
scalar RSUExampleScenario.node[61].veinsmobility 	totalCO2Emission 	369.37066685735
scalar RSUExampleScenario.node[62].veinsmobility 	startTime 	149.5
scalar RSUExampleScenario.node[62].veinsmobility 	totalTime 	200.5
scalar RSUExampleScenario.node[62].veinsmobility 	stopTime 	350
scalar RSUExampleScenario.node[62].veinsmobility 	minSpeed 	0
scalar RSUExampleScenario.node[62].veinsmobility 	maxSpeed 	13.999909378474
scalar RSUExampleScenario.node[62].veinsmobility 	totalDistance 	1024.5230064355
scalar RSUExampleScenario.node[62].veinsmobility 	totalCO2Emission 	364.91272035499
scalar RSUExampleScenario.node[63].veinsmobility 	startTime 	151.9
scalar RSUExampleScenario.node[63].veinsmobility 	totalTime 	198.1
scalar RSUExampleScenario.node[63].veinsmobility 	stopTime 	350
scalar RSUExampleScenario.node[63].veinsmobility 	minSpeed 	0
scalar RSUExampleScenario.node[63].veinsmobility 	maxSpeed 	13.999886405377
scalar RSUExampleScenario.node[63].veinsmobility 	totalDistance 	984.90915875569
scalar RSUExampleScenario.node[63].veinsmobility 	totalCO2Emission 	354.84818257735
scalar RSUExampleScenario.node[64].veinsmobility 	startTime 	154.3
scalar RSUExampleScenario.node[64].veinsmobility 	totalTime 	195.7
scalar RSUExampleScenario.node[64].veinsmobility 	stopTime 	350
scalar RSUExampleScenario.node[64].veinsmobility 	minSpeed 	0
scalar RSUExampleScenario.node[64].veinsmobility 	maxSpeed 	13.999724459921
scalar RSUExampleScenario.node[64].veinsmobility 	totalDistance 	953.57449200402
scalar RSUExampleScenario.node[64].veinsmobility 	totalCO2Emission 	338.78760716978
scalar RSUExampleScenario.node[65].veinsmobility 	startTime 	156.7
scalar RSUExampleScenario.node[65].veinsmobility 	totalTime 	193.3
scalar RSUExampleScenario.node[65].veinsmobility 	stopTime 	350
scalar RSUExampleScenario.node[65].veinsmobility 	minSpeed 	0
scalar RSUExampleScenario.node[65].veinsmobility 	maxSpeed 	13.999154136952
scalar RSUExampleScenario.node[65].veinsmobility 	totalDistance 	940.41443966534
scalar RSUExampleScenario.node[65].veinsmobility 	totalCO2Emission 	329.59708707599
scalar RSUExampleScenario.node[66].veinsmobility 	startTime 	159.1
scalar RSUExampleScenario.node[66].veinsmobility 	totalTime 	190.9
scalar RSUExampleScenario.node[66].veinsmobility 	stopTime 	350
scalar RSUExampleScenario.node[66].veinsmobility 	minSpeed 	0
scalar RSUExampleScenario.node[66].veinsmobility 	maxSpeed 	13.999956607032
scalar RSUExampleScenario.node[66].veinsmobility 	totalDistance 	927.93957769792
scalar RSUExampleScenario.node[66].veinsmobility 	totalCO2Emission 	326.66016468341
scalar RSUExampleScenario.node[67].veinsmobility 	startTime 	161.5
scalar RSUExampleScenario.node[67].veinsmobility 	totalTime 	188.5
scalar RSUExampleScenario.node[67].veinsmobility 	stopTime 	350
scalar RSUExampleScenario.node[67].veinsmobility 	minSpeed 	0
scalar RSUExampleScenario.node[67].veinsmobility 	maxSpeed 	13.999794826112
scalar RSUExampleScenario.node[67].veinsmobility 	totalDistance 	912.3739494138
scalar RSUExampleScenario.node[67].veinsmobility 	totalCO2Emission 	322.5941963247
scalar RSUExampleScenario.node[68].veinsmobility 	startTime 	163.9
scalar RSUExampleScenario.node[68].veinsmobility 	totalTime 	186.1
scalar RSUExampleScenario.node[68].veinsmobility 	stopTime 	350
scalar RSUExampleScenario.node[68].veinsmobility 	minSpeed 	0
scalar RSUExampleScenario.node[68].veinsmobility 	maxSpeed 	13.999268239229
scalar RSUExampleScenario.node[68].veinsmobility 	totalDistance 	892.01100474058
scalar RSUExampleScenario.node[68].veinsmobility 	totalCO2Emission 	321.13735062859
scalar RSUExampleScenario.node[69].veinsmobility 	startTime 	166.3
scalar RSUExampleScenario.node[69].veinsmobility 	totalTime 	183.7
scalar RSUExampleScenario.node[69].veinsmobility 	stopTime 	350
scalar RSUExampleScenario.node[69].veinsmobility 	minSpeed 	0
scalar RSUExampleScenario.node[69].veinsmobility 	maxSpeed 	13.998677125485
scalar RSUExampleScenario.node[69].veinsmobility 	totalDistance 	858.69260955113
scalar RSUExampleScenario.node[69].veinsmobility 	totalCO2Emission 	315.94328829408
scalar RSUExampleScenario.node[7].veinsmobility 	startTime 	16.9
scalar RSUExampleScenario.node[7].veinsmobility 	totalTime 	333.1
scalar RSUExampleScenario.node[7].veinsmobility 	stopTime 	350
scalar RSUExampleScenario.node[7].veinsmobility 	minSpeed 	0
scalar RSUExampleScenario.node[7].veinsmobility 	maxSpeed 	13.999800077486
scalar RSUExampleScenario.node[7].veinsmobility 	totalDistance 	2885.7447406087
scalar RSUExampleScenario.node[7].veinsmobility 	totalCO2Emission 	681.40317655842
scalar RSUExampleScenario.node[70].veinsmobility 	startTime 	168.8
scalar RSUExampleScenario.node[70].veinsmobility 	totalTime 	181.2
scalar RSUExampleScenario.node[70].veinsmobility 	stopTime 	350
scalar RSUExampleScenario.node[70].veinsmobility 	minSpeed 	0
scalar RSUExampleScenario.node[70].veinsmobility 	maxSpeed 	13.999821535428
scalar RSUExampleScenario.node[70].veinsmobility 	totalDistance 	824.31869579903
scalar RSUExampleScenario.node[70].veinsmobility 	totalCO2Emission 	310.23389344699
scalar RSUExampleScenario.node[71].veinsmobility 	startTime 	171.2
scalar RSUExampleScenario.node[71].veinsmobility 	totalTime 	178.8
scalar RSUExampleScenario.node[71].veinsmobility 	stopTime 	350
scalar RSUExampleScenario.node[71].veinsmobility 	minSpeed 	0
scalar RSUExampleScenario.node[71].veinsmobility 	maxSpeed 	13.999988511454
scalar RSUExampleScenario.node[71].veinsmobility 	totalDistance 	790.78276083593
scalar RSUExampleScenario.node[71].veinsmobility 	totalCO2Emission 	303.20187583153
scalar RSUExampleScenario.node[72].veinsmobility 	startTime 	173.6
scalar RSUExampleScenario.node[72].veinsmobility 	totalTime 	176.4
scalar RSUExampleScenario.node[72].veinsmobility 	stopTime 	350
scalar RSUExampleScenario.node[72].veinsmobility 	minSpeed 	0
scalar RSUExampleScenario.node[72].veinsmobility 	maxSpeed 	13.999679345551
scalar RSUExampleScenario.node[72].veinsmobility 	totalDistance 	758.6640630794
scalar RSUExampleScenario.node[72].veinsmobility 	totalCO2Emission 	299.34947918831
scalar RSUExampleScenario.node[73].veinsmobility 	startTime 	176
scalar RSUExampleScenario.node[73].veinsmobility 	totalTime 	174
scalar RSUExampleScenario.node[73].veinsmobility 	stopTime 	350
scalar RSUExampleScenario.node[73].veinsmobility 	minSpeed 	0
scalar RSUExampleScenario.node[73].veinsmobility 	maxSpeed 	13.999764053712
scalar RSUExampleScenario.node[73].veinsmobility 	totalDistance 	725.28974121519
scalar RSUExampleScenario.node[73].veinsmobility 	totalCO2Emission 	293.24747888379
scalar RSUExampleScenario.node[74].veinsmobility 	startTime 	178.4
scalar RSUExampleScenario.node[74].veinsmobility 	totalTime 	171.6
scalar RSUExampleScenario.node[74].veinsmobility 	stopTime 	350
scalar RSUExampleScenario.node[74].veinsmobility 	minSpeed 	0
scalar RSUExampleScenario.node[74].veinsmobility 	maxSpeed 	13.999372692739
scalar RSUExampleScenario.node[74].veinsmobility 	totalDistance 	691.63804971838
scalar RSUExampleScenario.node[74].veinsmobility 	totalCO2Emission 	288.18844625108
scalar RSUExampleScenario.node[75].veinsmobility 	startTime 	180.8
scalar RSUExampleScenario.node[75].veinsmobility 	totalTime 	169.2
scalar RSUExampleScenario.node[75].veinsmobility 	stopTime 	350
scalar RSUExampleScenario.node[75].veinsmobility 	minSpeed 	0
scalar RSUExampleScenario.node[75].veinsmobility 	maxSpeed 	13.998958468966
scalar RSUExampleScenario.node[75].veinsmobility 	totalDistance 	658.36999157375
scalar RSUExampleScenario.node[75].veinsmobility 	totalCO2Emission 	281.09164539824
scalar RSUExampleScenario.node[76].veinsmobility 	startTime 	183.2
scalar RSUExampleScenario.node[76].veinsmobility 	totalTime 	166.8
scalar RSUExampleScenario.node[76].veinsmobility 	stopTime 	350
scalar RSUExampleScenario.node[76].veinsmobility 	minSpeed 	0
scalar RSUExampleScenario.node[76].veinsmobility 	maxSpeed 	13.999926105682
scalar RSUExampleScenario.node[76].veinsmobility 	totalDistance 	624.23452515666
scalar RSUExampleScenario.node[76].veinsmobility 	totalCO2Emission 	276.50794260947
scalar RSUExampleScenario.node[77].veinsmobility 	startTime 	185.6
scalar RSUExampleScenario.node[77].veinsmobility 	totalTime 	164.4
scalar RSUExampleScenario.node[77].veinsmobility 	stopTime 	350
scalar RSUExampleScenario.node[77].veinsmobility 	minSpeed 	0
scalar RSUExampleScenario.node[77].veinsmobility 	maxSpeed 	13.996348497388
scalar RSUExampleScenario.node[77].veinsmobility 	totalDistance 	591.52474304979
scalar RSUExampleScenario.node[77].veinsmobility 	totalCO2Emission 	271.02887703906
scalar RSUExampleScenario.node[78].veinsmobility 	startTime 	188
scalar RSUExampleScenario.node[78].veinsmobility 	totalTime 	162
scalar RSUExampleScenario.node[78].veinsmobility 	stopTime 	350
scalar RSUExampleScenario.node[78].veinsmobility 	minSpeed 	0
scalar RSUExampleScenario.node[78].veinsmobility 	maxSpeed 	13.999678712739
scalar RSUExampleScenario.node[78].veinsmobility 	totalDistance 	558.11847031879
scalar RSUExampleScenario.node[78].veinsmobility 	totalCO2Emission 	264.36010519553
scalar RSUExampleScenario.node[79].veinsmobility 	startTime 	190.4
scalar RSUExampleScenario.node[79].veinsmobility 	totalTime 	159.6
scalar RSUExampleScenario.node[79].veinsmobility 	stopTime 	350
scalar RSUExampleScenario.node[79].veinsmobility 	minSpeed 	0
scalar RSUExampleScenario.node[79].veinsmobility 	maxSpeed 	13.999612433361
scalar RSUExampleScenario.node[79].veinsmobility 	totalDistance 	523.68758936203
scalar RSUExampleScenario.node[79].veinsmobility 	totalCO2Emission 	260.33444939762
scalar RSUExampleScenario.node[8].veinsmobility 	startTime 	19.3
scalar RSUExampleScenario.node[8].veinsmobility 	totalTime 	330.7
scalar RSUExampleScenario.node[8].veinsmobility 	stopTime 	350
scalar RSUExampleScenario.node[8].veinsmobility 	minSpeed 	0
scalar RSUExampleScenario.node[8].veinsmobility 	maxSpeed 	13.999976173679
scalar RSUExampleScenario.node[8].veinsmobility 	totalDistance 	2861.0450899749
scalar RSUExampleScenario.node[8].veinsmobility 	totalCO2Emission 	677.82502931569
scalar RSUExampleScenario.node[80].veinsmobility 	startTime 	192.9
scalar RSUExampleScenario.node[80].veinsmobility 	totalTime 	157.1
scalar RSUExampleScenario.node[80].veinsmobility 	stopTime 	350
scalar RSUExampleScenario.node[80].veinsmobility 	minSpeed 	0
scalar RSUExampleScenario.node[80].veinsmobility 	maxSpeed 	13.999995584839
scalar RSUExampleScenario.node[80].veinsmobility 	totalDistance 	489.98570331783
scalar RSUExampleScenario.node[80].veinsmobility 	totalCO2Emission 	253.49643276988
scalar RSUExampleScenario.node[81].veinsmobility 	startTime 	195.3
scalar RSUExampleScenario.node[81].veinsmobility 	totalTime 	154.7
scalar RSUExampleScenario.node[81].veinsmobility 	stopTime 	350
scalar RSUExampleScenario.node[81].veinsmobility 	minSpeed 	0
scalar RSUExampleScenario.node[81].veinsmobility 	maxSpeed 	13.99869227113
scalar RSUExampleScenario.node[81].veinsmobility 	totalDistance 	456.13666337401
scalar RSUExampleScenario.node[81].veinsmobility 	totalCO2Emission 	247.58919251841
scalar RSUExampleScenario.node[82].veinsmobility 	startTime 	197.7
scalar RSUExampleScenario.node[82].veinsmobility 	totalTime 	152.3
scalar RSUExampleScenario.node[82].veinsmobility 	stopTime 	350
scalar RSUExampleScenario.node[82].veinsmobility 	minSpeed 	0
scalar RSUExampleScenario.node[82].veinsmobility 	maxSpeed 	13.996936179136
scalar RSUExampleScenario.node[82].veinsmobility 	totalDistance 	422.43915818094
scalar RSUExampleScenario.node[82].veinsmobility 	totalCO2Emission 	241.37844199621
scalar RSUExampleScenario.node[83].veinsmobility 	startTime 	200.1
scalar RSUExampleScenario.node[83].veinsmobility 	totalTime 	149.9
scalar RSUExampleScenario.node[83].veinsmobility 	stopTime 	350
scalar RSUExampleScenario.node[83].veinsmobility 	minSpeed 	0
scalar RSUExampleScenario.node[83].veinsmobility 	maxSpeed 	13.99735722949
scalar RSUExampleScenario.node[83].veinsmobility 	totalDistance 	388.50686516689
scalar RSUExampleScenario.node[83].veinsmobility 	totalCO2Emission 	235.63167410677
scalar RSUExampleScenario.node[84].veinsmobility 	startTime 	202.5
scalar RSUExampleScenario.node[84].veinsmobility 	totalTime 	147.5
scalar RSUExampleScenario.node[84].veinsmobility 	stopTime 	350
scalar RSUExampleScenario.node[84].veinsmobility 	minSpeed 	0
scalar RSUExampleScenario.node[84].veinsmobility 	maxSpeed 	13.994397630647
scalar RSUExampleScenario.node[84].veinsmobility 	totalDistance 	356.246877614
scalar RSUExampleScenario.node[84].veinsmobility 	totalCO2Emission 	232.04895575987
scalar RSUExampleScenario.node[85].veinsmobility 	startTime 	204.9
scalar RSUExampleScenario.node[85].veinsmobility 	totalTime 	145.1
scalar RSUExampleScenario.node[85].veinsmobility 	stopTime 	350
scalar RSUExampleScenario.node[85].veinsmobility 	minSpeed 	0
scalar RSUExampleScenario.node[85].veinsmobility 	maxSpeed 	13.997570070743
scalar RSUExampleScenario.node[85].veinsmobility 	totalDistance 	322.09403915711
scalar RSUExampleScenario.node[85].veinsmobility 	totalCO2Emission 	224.64330147597
scalar RSUExampleScenario.node[86].veinsmobility 	startTime 	207.3
scalar RSUExampleScenario.node[86].veinsmobility 	totalTime 	142.7
scalar RSUExampleScenario.node[86].veinsmobility 	stopTime 	350
scalar RSUExampleScenario.node[86].veinsmobility 	minSpeed 	0
scalar RSUExampleScenario.node[86].veinsmobility 	maxSpeed 	13.773721100127
scalar RSUExampleScenario.node[86].veinsmobility 	totalDistance 	284.25197000897
scalar RSUExampleScenario.node[86].veinsmobility 	totalCO2Emission 	216.88592213414
scalar RSUExampleScenario.node[87].veinsmobility 	startTime 	209.7
scalar RSUExampleScenario.node[87].veinsmobility 	totalTime 	140.3
scalar RSUExampleScenario.node[87].veinsmobility 	stopTime 	350
scalar RSUExampleScenario.node[87].veinsmobility 	minSpeed 	0
scalar RSUExampleScenario.node[87].veinsmobility 	maxSpeed 	13.869726320233
scalar RSUExampleScenario.node[87].veinsmobility 	totalDistance 	247.60767075394
scalar RSUExampleScenario.node[87].veinsmobility 	totalCO2Emission 	201.43979408881
scalar RSUExampleScenario.node[88].veinsmobility 	startTime 	212.1
scalar RSUExampleScenario.node[88].veinsmobility 	totalTime 	137.9
scalar RSUExampleScenario.node[88].veinsmobility 	stopTime 	350
scalar RSUExampleScenario.node[88].veinsmobility 	minSpeed 	0
scalar RSUExampleScenario.node[88].veinsmobility 	maxSpeed 	13.705189586357
scalar RSUExampleScenario.node[88].veinsmobility 	totalDistance 	225.51856154103
scalar RSUExampleScenario.node[88].veinsmobility 	totalCO2Emission 	189.91481317438
scalar RSUExampleScenario.node[89].veinsmobility 	startTime 	214.5
scalar RSUExampleScenario.node[89].veinsmobility 	totalTime 	135.5
scalar RSUExampleScenario.node[89].veinsmobility 	stopTime 	350
scalar RSUExampleScenario.node[89].veinsmobility 	minSpeed 	0
scalar RSUExampleScenario.node[89].veinsmobility 	maxSpeed 	13.814499031856
scalar RSUExampleScenario.node[89].veinsmobility 	totalDistance 	215.02298454732
scalar RSUExampleScenario.node[89].veinsmobility 	totalCO2Emission 	185.78821629415
scalar RSUExampleScenario.node[9].veinsmobility 	startTime 	21.7
scalar RSUExampleScenario.node[9].veinsmobility 	totalTime 	328.3
scalar RSUExampleScenario.node[9].veinsmobility 	stopTime 	350
scalar RSUExampleScenario.node[9].veinsmobility 	minSpeed 	0
scalar RSUExampleScenario.node[9].veinsmobility 	maxSpeed 	13.999937670624
scalar RSUExampleScenario.node[9].veinsmobility 	totalDistance 	2823.9033054599
scalar RSUExampleScenario.node[9].veinsmobility 	totalCO2Emission 	667.62656187029
scalar RSUExampleScenario.node[90].veinsmobility 	startTime 	217
scalar RSUExampleScenario.node[90].veinsmobility 	totalTime 	133
scalar RSUExampleScenario.node[90].veinsmobility 	stopTime 	350
scalar RSUExampleScenario.node[90].veinsmobility 	minSpeed 	0
scalar RSUExampleScenario.node[90].veinsmobility 	maxSpeed 	13.793536851665
scalar RSUExampleScenario.node[90].veinsmobility 	totalDistance 	201.9076088431
scalar RSUExampleScenario.node[90].veinsmobility 	totalCO2Emission 	183.49783214959
scalar RSUExampleScenario.node[91].veinsmobility 	startTime 	219.4
scalar RSUExampleScenario.node[91].veinsmobility 	totalTime 	130.6
scalar RSUExampleScenario.node[91].veinsmobility 	stopTime 	350
scalar RSUExampleScenario.node[91].veinsmobility 	minSpeed 	0
scalar RSUExampleScenario.node[91].veinsmobility 	maxSpeed 	13.852339214255
scalar RSUExampleScenario.node[91].veinsmobility 	totalDistance 	185.29142748849
scalar RSUExampleScenario.node[91].veinsmobility 	totalCO2Emission 	181.44430324677
scalar RSUExampleScenario.node[92].veinsmobility 	startTime 	221.8
scalar RSUExampleScenario.node[92].veinsmobility 	totalTime 	128.2
scalar RSUExampleScenario.node[92].veinsmobility 	stopTime 	350
scalar RSUExampleScenario.node[92].veinsmobility 	minSpeed 	0
scalar RSUExampleScenario.node[92].veinsmobility 	maxSpeed 	13.832589374885
scalar RSUExampleScenario.node[92].veinsmobility 	totalDistance 	150.54183687519
scalar RSUExampleScenario.node[92].veinsmobility 	totalCO2Emission 	166.74368705692
scalar RSUExampleScenario.node[93].veinsmobility 	startTime 	224.2
scalar RSUExampleScenario.node[93].veinsmobility 	totalTime 	125.8
scalar RSUExampleScenario.node[93].veinsmobility 	stopTime 	350
scalar RSUExampleScenario.node[93].veinsmobility 	minSpeed 	0
scalar RSUExampleScenario.node[93].veinsmobility 	maxSpeed 	13.740989567803
scalar RSUExampleScenario.node[93].veinsmobility 	totalDistance 	123.7883666677
scalar RSUExampleScenario.node[93].veinsmobility 	totalCO2Emission 	154.41557273928
scalar RSUExampleScenario.node[94].veinsmobility 	startTime 	226.6
scalar RSUExampleScenario.node[94].veinsmobility 	totalTime 	123.4
scalar RSUExampleScenario.node[94].veinsmobility 	stopTime 	350
scalar RSUExampleScenario.node[94].veinsmobility 	minSpeed 	0
scalar RSUExampleScenario.node[94].veinsmobility 	maxSpeed 	13.867396549846
scalar RSUExampleScenario.node[94].veinsmobility 	totalDistance 	112.39700960959
scalar RSUExampleScenario.node[94].veinsmobility 	totalCO2Emission 	148.92079754903
scalar RSUExampleScenario.node[95].veinsmobility 	startTime 	229
scalar RSUExampleScenario.node[95].veinsmobility 	totalTime 	121
scalar RSUExampleScenario.node[95].veinsmobility 	stopTime 	350
scalar RSUExampleScenario.node[95].veinsmobility 	minSpeed 	0
scalar RSUExampleScenario.node[95].veinsmobility 	maxSpeed 	13.865061156075
scalar RSUExampleScenario.node[95].veinsmobility 	totalDistance 	99.465699668042
scalar RSUExampleScenario.node[95].veinsmobility 	totalCO2Emission 	145.29296109675
scalar RSUExampleScenario.node[96].veinsmobility 	startTime 	231.4
scalar RSUExampleScenario.node[96].veinsmobility 	totalTime 	118.6
scalar RSUExampleScenario.node[96].veinsmobility 	stopTime 	350
scalar RSUExampleScenario.node[96].veinsmobility 	minSpeed 	0
scalar RSUExampleScenario.node[96].veinsmobility 	maxSpeed 	13.804031540287
scalar RSUExampleScenario.node[96].veinsmobility 	totalDistance 	83.580451263561
scalar RSUExampleScenario.node[96].veinsmobility 	totalCO2Emission 	142.54270334079
scalar RSUExampleScenario.node[97].veinsmobility 	startTime 	233.8
scalar RSUExampleScenario.node[97].veinsmobility 	totalTime 	116.2
scalar RSUExampleScenario.node[97].veinsmobility 	stopTime 	350
scalar RSUExampleScenario.node[97].veinsmobility 	minSpeed 	0
scalar RSUExampleScenario.node[97].veinsmobility 	maxSpeed 	13.123460471173
scalar RSUExampleScenario.node[97].veinsmobility 	totalDistance 	61.228522565574
scalar RSUExampleScenario.node[97].veinsmobility 	totalCO2Emission 	137.29712338564
scalar RSUExampleScenario.node[98].veinsmobility 	startTime 	236.2
scalar RSUExampleScenario.node[98].veinsmobility 	totalTime 	113.8
scalar RSUExampleScenario.node[98].veinsmobility 	stopTime 	350
scalar RSUExampleScenario.node[98].veinsmobility 	minSpeed 	0
scalar RSUExampleScenario.node[98].veinsmobility 	maxSpeed 	7.5425158180158
scalar RSUExampleScenario.node[98].veinsmobility 	totalDistance 	21.182181587181
scalar RSUExampleScenario.node[98].veinsmobility 	totalCO2Emission 	118.93992834423
scalar RSUExampleScenario.node[99].veinsmobility 	startTime 	238.6
scalar RSUExampleScenario.node[99].veinsmobility 	totalTime 	111.4
scalar RSUExampleScenario.node[99].veinsmobility 	stopTime 	350
scalar RSUExampleScenario.node[99].veinsmobility 	minSpeed 	0
scalar RSUExampleScenario.node[99].veinsmobility 	maxSpeed 	3.0795051645247
scalar RSUExampleScenario.node[99].veinsmobility 	totalDistance 	3.3113874532368
scalar RSUExampleScenario.node[99].veinsmobility 	totalCO2Emission 	109.80066811323
