version 2
run statistic3-1209-20150325-07:59:32-16156
attr c 21
attr configname statistic3
attr datetime 20150325-07:59:32
attr experiment statistic3
attr inifile omnetpp.ini
attr iterationvars "$p=1/10, $c=21"
attr iterationvars2 "$p=1/10, $c=21, $repetition=9"
attr measurement "$p=1/10, $c=21"
attr network RSUExampleScenario
attr p 1/10
attr processid 16156
attr repetition 9
attr replication #9
attr resultdir results
attr runnumber 1209
attr seedset 1209

scalar . 	c 	21
scalar RSUExampleScenario.rsu[0].appl 	NumberofCH 	8
scalar RSUExampleScenario.rsu[0].appl 	NumberofON 	80
scalar RSUExampleScenario.rsu[0].appl 	NumberofFN 	12
scalar RSUExampleScenario.rsu[0].appl 	meanClusterNodes 	10
scalar RSUExampleScenario.rsu[0].appl 	varClusterNodes 	6.855654600401
scalar RSUExampleScenario.rsu[0].appl 	sumCHutility 	296.38478086435
scalar RSUExampleScenario.rsu[0].appl 	meanCHutility 	37.048097608044
scalar RSUExampleScenario.rsu[0].appl 	varCHutility 	3.0864645387484
scalar RSUExampleScenario.rsu[0].appl 	sumDiffCHutility 	-24.568090208119
scalar RSUExampleScenario.rsu[0].appl 	meanDiffCHutility 	-3.0710112760149
scalar RSUExampleScenario.rsu[0].appl 	varDiffCHutility 	3.057363350708
scalar RSUExampleScenario.rsu[0].appl 	expectedCHutility 	271.81669065623
scalar RSUExampleScenario.rsu[0].appl 	meanExpectedCHutility 	33.977086332029
scalar RSUExampleScenario.rsu[0].appl 	varExpectedCHutility 	0.33471007914268
scalar RSUExampleScenario.node[0].veinsmobility 	startTime 	0.1
scalar RSUExampleScenario.node[0].veinsmobility 	totalTime 	349.9
scalar RSUExampleScenario.node[0].veinsmobility 	stopTime 	350
scalar RSUExampleScenario.node[0].veinsmobility 	minSpeed 	0
scalar RSUExampleScenario.node[0].veinsmobility 	maxSpeed 	13.999951385804
scalar RSUExampleScenario.node[0].veinsmobility 	totalDistance 	3134.886983313
scalar RSUExampleScenario.node[0].veinsmobility 	totalCO2Emission 	740.91654193644
scalar RSUExampleScenario.node[1].veinsmobility 	startTime 	2.5
scalar RSUExampleScenario.node[1].veinsmobility 	totalTime 	347.5
scalar RSUExampleScenario.node[1].veinsmobility 	stopTime 	350
scalar RSUExampleScenario.node[1].veinsmobility 	minSpeed 	0
scalar RSUExampleScenario.node[1].veinsmobility 	maxSpeed 	13.999876130153
scalar RSUExampleScenario.node[1].veinsmobility 	totalDistance 	3081.9496551057
scalar RSUExampleScenario.node[1].veinsmobility 	totalCO2Emission 	724.30198319309
scalar RSUExampleScenario.node[10].veinsmobility 	startTime 	24.2
scalar RSUExampleScenario.node[10].veinsmobility 	totalTime 	325.8
scalar RSUExampleScenario.node[10].veinsmobility 	stopTime 	350
scalar RSUExampleScenario.node[10].veinsmobility 	minSpeed 	0
scalar RSUExampleScenario.node[10].veinsmobility 	maxSpeed 	13.99990535141
scalar RSUExampleScenario.node[10].veinsmobility 	totalDistance 	2794.0113183647
scalar RSUExampleScenario.node[10].veinsmobility 	totalCO2Emission 	665.00133629272
scalar RSUExampleScenario.node[11].veinsmobility 	startTime 	26.6
scalar RSUExampleScenario.node[11].veinsmobility 	totalTime 	323.4
scalar RSUExampleScenario.node[11].veinsmobility 	stopTime 	350
scalar RSUExampleScenario.node[11].veinsmobility 	minSpeed 	0
scalar RSUExampleScenario.node[11].veinsmobility 	maxSpeed 	13.99998340464
scalar RSUExampleScenario.node[11].veinsmobility 	totalDistance 	2752.7218193663
scalar RSUExampleScenario.node[11].veinsmobility 	totalCO2Emission 	652.45978420816
scalar RSUExampleScenario.node[12].veinsmobility 	startTime 	29
scalar RSUExampleScenario.node[12].veinsmobility 	totalTime 	321
scalar RSUExampleScenario.node[12].veinsmobility 	stopTime 	350
scalar RSUExampleScenario.node[12].veinsmobility 	minSpeed 	0
scalar RSUExampleScenario.node[12].veinsmobility 	maxSpeed 	13.999997078746
scalar RSUExampleScenario.node[12].veinsmobility 	totalDistance 	2722.8008522846
scalar RSUExampleScenario.node[12].veinsmobility 	totalCO2Emission 	648.59364984555
scalar RSUExampleScenario.node[13].veinsmobility 	startTime 	31.4
scalar RSUExampleScenario.node[13].veinsmobility 	totalTime 	318.6
scalar RSUExampleScenario.node[13].veinsmobility 	stopTime 	350
scalar RSUExampleScenario.node[13].veinsmobility 	minSpeed 	0
scalar RSUExampleScenario.node[13].veinsmobility 	maxSpeed 	13.999935180356
scalar RSUExampleScenario.node[13].veinsmobility 	totalDistance 	2681.6856412584
scalar RSUExampleScenario.node[13].veinsmobility 	totalCO2Emission 	644.75687878701
scalar RSUExampleScenario.node[14].veinsmobility 	startTime 	33.8
scalar RSUExampleScenario.node[14].veinsmobility 	totalTime 	316.2
scalar RSUExampleScenario.node[14].veinsmobility 	stopTime 	350
scalar RSUExampleScenario.node[14].veinsmobility 	minSpeed 	0
scalar RSUExampleScenario.node[14].veinsmobility 	maxSpeed 	13.999560502672
scalar RSUExampleScenario.node[14].veinsmobility 	totalDistance 	2653.9487202571
scalar RSUExampleScenario.node[14].veinsmobility 	totalCO2Emission 	637.61532789402
scalar RSUExampleScenario.node[15].veinsmobility 	startTime 	36.2
scalar RSUExampleScenario.node[15].veinsmobility 	totalTime 	313.8
scalar RSUExampleScenario.node[15].veinsmobility 	stopTime 	350
scalar RSUExampleScenario.node[15].veinsmobility 	minSpeed 	0
scalar RSUExampleScenario.node[15].veinsmobility 	maxSpeed 	13.99999324128
scalar RSUExampleScenario.node[15].veinsmobility 	totalDistance 	2613.7080674234
scalar RSUExampleScenario.node[15].veinsmobility 	totalCO2Emission 	631.14097366299
scalar RSUExampleScenario.node[16].veinsmobility 	startTime 	38.6
scalar RSUExampleScenario.node[16].veinsmobility 	totalTime 	311.4
scalar RSUExampleScenario.node[16].veinsmobility 	stopTime 	350
scalar RSUExampleScenario.node[16].veinsmobility 	minSpeed 	0
scalar RSUExampleScenario.node[16].veinsmobility 	maxSpeed 	13.999975349996
scalar RSUExampleScenario.node[16].veinsmobility 	totalDistance 	2584.3181023667
scalar RSUExampleScenario.node[16].veinsmobility 	totalCO2Emission 	630.13965581229
scalar RSUExampleScenario.node[17].veinsmobility 	startTime 	41
scalar RSUExampleScenario.node[17].veinsmobility 	totalTime 	309
scalar RSUExampleScenario.node[17].veinsmobility 	stopTime 	350
scalar RSUExampleScenario.node[17].veinsmobility 	minSpeed 	0
scalar RSUExampleScenario.node[17].veinsmobility 	maxSpeed 	13.999999275899
scalar RSUExampleScenario.node[17].veinsmobility 	totalDistance 	2540.9130923409
scalar RSUExampleScenario.node[17].veinsmobility 	totalCO2Emission 	618.86432928416
scalar RSUExampleScenario.node[18].veinsmobility 	startTime 	43.4
scalar RSUExampleScenario.node[18].veinsmobility 	totalTime 	306.6
scalar RSUExampleScenario.node[18].veinsmobility 	stopTime 	350
scalar RSUExampleScenario.node[18].veinsmobility 	minSpeed 	0
scalar RSUExampleScenario.node[18].veinsmobility 	maxSpeed 	13.999928180764
scalar RSUExampleScenario.node[18].veinsmobility 	totalDistance 	2509.533042388
scalar RSUExampleScenario.node[18].veinsmobility 	totalCO2Emission 	615.12651174862
scalar RSUExampleScenario.node[19].veinsmobility 	startTime 	45.8
scalar RSUExampleScenario.node[19].veinsmobility 	totalTime 	304.2
scalar RSUExampleScenario.node[19].veinsmobility 	stopTime 	350
scalar RSUExampleScenario.node[19].veinsmobility 	minSpeed 	0
scalar RSUExampleScenario.node[19].veinsmobility 	maxSpeed 	13.999974101442
scalar RSUExampleScenario.node[19].veinsmobility 	totalDistance 	2471.1833967744
scalar RSUExampleScenario.node[19].veinsmobility 	totalCO2Emission 	610.06532009028
scalar RSUExampleScenario.node[2].veinsmobility 	startTime 	4.9
scalar RSUExampleScenario.node[2].veinsmobility 	totalTime 	345.1
scalar RSUExampleScenario.node[2].veinsmobility 	stopTime 	350
scalar RSUExampleScenario.node[2].veinsmobility 	minSpeed 	0
scalar RSUExampleScenario.node[2].veinsmobility 	maxSpeed 	13.999848545699
scalar RSUExampleScenario.node[2].veinsmobility 	totalDistance 	3043.1355488306
scalar RSUExampleScenario.node[2].veinsmobility 	totalCO2Emission 	722.99956513664
scalar RSUExampleScenario.node[20].veinsmobility 	startTime 	48.3
scalar RSUExampleScenario.node[20].veinsmobility 	totalTime 	301.7
scalar RSUExampleScenario.node[20].veinsmobility 	stopTime 	350
scalar RSUExampleScenario.node[20].veinsmobility 	minSpeed 	0
scalar RSUExampleScenario.node[20].veinsmobility 	maxSpeed 	13.999945094907
scalar RSUExampleScenario.node[20].veinsmobility 	totalDistance 	2441.8181439467
scalar RSUExampleScenario.node[20].veinsmobility 	totalCO2Emission 	606.39781277267
scalar RSUExampleScenario.node[21].veinsmobility 	startTime 	50.7
scalar RSUExampleScenario.node[21].veinsmobility 	totalTime 	299.3
scalar RSUExampleScenario.node[21].veinsmobility 	stopTime 	350
scalar RSUExampleScenario.node[21].veinsmobility 	minSpeed 	0
scalar RSUExampleScenario.node[21].veinsmobility 	maxSpeed 	13.999865490776
scalar RSUExampleScenario.node[21].veinsmobility 	totalDistance 	2402.7682286695
scalar RSUExampleScenario.node[21].veinsmobility 	totalCO2Emission 	599.26479846621
scalar RSUExampleScenario.node[22].veinsmobility 	startTime 	53.1
scalar RSUExampleScenario.node[22].veinsmobility 	totalTime 	296.9
scalar RSUExampleScenario.node[22].veinsmobility 	stopTime 	350
scalar RSUExampleScenario.node[22].veinsmobility 	minSpeed 	0
scalar RSUExampleScenario.node[22].veinsmobility 	maxSpeed 	13.999845340925
scalar RSUExampleScenario.node[22].veinsmobility 	totalDistance 	2372.6343696719
scalar RSUExampleScenario.node[22].veinsmobility 	totalCO2Emission 	591.47381753731
scalar RSUExampleScenario.node[23].veinsmobility 	startTime 	55.5
scalar RSUExampleScenario.node[23].veinsmobility 	totalTime 	294.5
scalar RSUExampleScenario.node[23].veinsmobility 	stopTime 	350
scalar RSUExampleScenario.node[23].veinsmobility 	minSpeed 	0
scalar RSUExampleScenario.node[23].veinsmobility 	maxSpeed 	13.999763794316
scalar RSUExampleScenario.node[23].veinsmobility 	totalDistance 	2336.5100993645
scalar RSUExampleScenario.node[23].veinsmobility 	totalCO2Emission 	587.07424589888
scalar RSUExampleScenario.node[24].veinsmobility 	startTime 	57.9
scalar RSUExampleScenario.node[24].veinsmobility 	totalTime 	292.1
scalar RSUExampleScenario.node[24].veinsmobility 	stopTime 	350
scalar RSUExampleScenario.node[24].veinsmobility 	minSpeed 	0
scalar RSUExampleScenario.node[24].veinsmobility 	maxSpeed 	13.999915771405
scalar RSUExampleScenario.node[24].veinsmobility 	totalDistance 	2306.7596243937
scalar RSUExampleScenario.node[24].veinsmobility 	totalCO2Emission 	582.32491413702
scalar RSUExampleScenario.node[25].veinsmobility 	startTime 	60.3
scalar RSUExampleScenario.node[25].veinsmobility 	totalTime 	289.7
scalar RSUExampleScenario.node[25].veinsmobility 	stopTime 	350
scalar RSUExampleScenario.node[25].veinsmobility 	minSpeed 	0
scalar RSUExampleScenario.node[25].veinsmobility 	maxSpeed 	13.999933413796
scalar RSUExampleScenario.node[25].veinsmobility 	totalDistance 	2269.2888412972
scalar RSUExampleScenario.node[25].veinsmobility 	totalCO2Emission 	575.13258398155
scalar RSUExampleScenario.node[26].veinsmobility 	startTime 	62.7
scalar RSUExampleScenario.node[26].veinsmobility 	totalTime 	287.3
scalar RSUExampleScenario.node[26].veinsmobility 	stopTime 	350
scalar RSUExampleScenario.node[26].veinsmobility 	minSpeed 	0
scalar RSUExampleScenario.node[26].veinsmobility 	maxSpeed 	13.999925960668
scalar RSUExampleScenario.node[26].veinsmobility 	totalDistance 	2237.7693073787
scalar RSUExampleScenario.node[26].veinsmobility 	totalCO2Emission 	567.62007722389
scalar RSUExampleScenario.node[27].veinsmobility 	startTime 	65.1
scalar RSUExampleScenario.node[27].veinsmobility 	totalTime 	284.9
scalar RSUExampleScenario.node[27].veinsmobility 	stopTime 	350
scalar RSUExampleScenario.node[27].veinsmobility 	minSpeed 	0
scalar RSUExampleScenario.node[27].veinsmobility 	maxSpeed 	13.999994025917
scalar RSUExampleScenario.node[27].veinsmobility 	totalDistance 	2201.0753992065
scalar RSUExampleScenario.node[27].veinsmobility 	totalCO2Emission 	566.85611241463
scalar RSUExampleScenario.node[28].veinsmobility 	startTime 	67.5
scalar RSUExampleScenario.node[28].veinsmobility 	totalTime 	282.5
scalar RSUExampleScenario.node[28].veinsmobility 	stopTime 	350
scalar RSUExampleScenario.node[28].veinsmobility 	minSpeed 	0
scalar RSUExampleScenario.node[28].veinsmobility 	maxSpeed 	13.999977081749
scalar RSUExampleScenario.node[28].veinsmobility 	totalDistance 	2169.9435140929
scalar RSUExampleScenario.node[28].veinsmobility 	totalCO2Emission 	558.02693721489
scalar RSUExampleScenario.node[29].veinsmobility 	startTime 	69.9
scalar RSUExampleScenario.node[29].veinsmobility 	totalTime 	280.1
scalar RSUExampleScenario.node[29].veinsmobility 	stopTime 	350
scalar RSUExampleScenario.node[29].veinsmobility 	minSpeed 	0
scalar RSUExampleScenario.node[29].veinsmobility 	maxSpeed 	13.999977792169
scalar RSUExampleScenario.node[29].veinsmobility 	totalDistance 	2131.7662067761
scalar RSUExampleScenario.node[29].veinsmobility 	totalCO2Emission 	551.22240905383
scalar RSUExampleScenario.node[3].veinsmobility 	startTime 	7.3
scalar RSUExampleScenario.node[3].veinsmobility 	totalTime 	342.7
scalar RSUExampleScenario.node[3].veinsmobility 	stopTime 	350
scalar RSUExampleScenario.node[3].veinsmobility 	minSpeed 	0
scalar RSUExampleScenario.node[3].veinsmobility 	maxSpeed 	13.999998828932
scalar RSUExampleScenario.node[3].veinsmobility 	totalDistance 	2995.7547230155
scalar RSUExampleScenario.node[3].veinsmobility 	totalCO2Emission 	720.23550474472
scalar RSUExampleScenario.node[30].veinsmobility 	startTime 	72.4
scalar RSUExampleScenario.node[30].veinsmobility 	totalTime 	277.6
scalar RSUExampleScenario.node[30].veinsmobility 	stopTime 	350
scalar RSUExampleScenario.node[30].veinsmobility 	minSpeed 	0
scalar RSUExampleScenario.node[30].veinsmobility 	maxSpeed 	13.999996835331
scalar RSUExampleScenario.node[30].veinsmobility 	totalDistance 	2100.6522898953
scalar RSUExampleScenario.node[30].veinsmobility 	totalCO2Emission 	547.47684537591
scalar RSUExampleScenario.node[31].veinsmobility 	startTime 	74.8
scalar RSUExampleScenario.node[31].veinsmobility 	totalTime 	275.2
scalar RSUExampleScenario.node[31].veinsmobility 	stopTime 	350
scalar RSUExampleScenario.node[31].veinsmobility 	minSpeed 	0
scalar RSUExampleScenario.node[31].veinsmobility 	maxSpeed 	13.999930477922
scalar RSUExampleScenario.node[31].veinsmobility 	totalDistance 	2065.2272737367
scalar RSUExampleScenario.node[31].veinsmobility 	totalCO2Emission 	541.58415133002
scalar RSUExampleScenario.node[32].veinsmobility 	startTime 	77.2
scalar RSUExampleScenario.node[32].veinsmobility 	totalTime 	272.8
scalar RSUExampleScenario.node[32].veinsmobility 	stopTime 	350
scalar RSUExampleScenario.node[32].veinsmobility 	minSpeed 	0
scalar RSUExampleScenario.node[32].veinsmobility 	maxSpeed 	13.999875256135
scalar RSUExampleScenario.node[32].veinsmobility 	totalDistance 	2032.5546107095
scalar RSUExampleScenario.node[32].veinsmobility 	totalCO2Emission 	536.11475114854
scalar RSUExampleScenario.node[33].veinsmobility 	startTime 	79.6
scalar RSUExampleScenario.node[33].veinsmobility 	totalTime 	270.4
scalar RSUExampleScenario.node[33].veinsmobility 	stopTime 	350
scalar RSUExampleScenario.node[33].veinsmobility 	minSpeed 	0
scalar RSUExampleScenario.node[33].veinsmobility 	maxSpeed 	13.999930279152
scalar RSUExampleScenario.node[33].veinsmobility 	totalDistance 	1997.9880952143
scalar RSUExampleScenario.node[33].veinsmobility 	totalCO2Emission 	530.65009922758
scalar RSUExampleScenario.node[34].veinsmobility 	startTime 	82
scalar RSUExampleScenario.node[34].veinsmobility 	totalTime 	268
scalar RSUExampleScenario.node[34].veinsmobility 	stopTime 	350
scalar RSUExampleScenario.node[34].veinsmobility 	minSpeed 	0
scalar RSUExampleScenario.node[34].veinsmobility 	maxSpeed 	13.99989329546
scalar RSUExampleScenario.node[34].veinsmobility 	totalDistance 	1964.6336811278
scalar RSUExampleScenario.node[34].veinsmobility 	totalCO2Emission 	523.89380496365
scalar RSUExampleScenario.node[35].veinsmobility 	startTime 	84.4
scalar RSUExampleScenario.node[35].veinsmobility 	totalTime 	265.6
scalar RSUExampleScenario.node[35].veinsmobility 	stopTime 	350
scalar RSUExampleScenario.node[35].veinsmobility 	minSpeed 	0
scalar RSUExampleScenario.node[35].veinsmobility 	maxSpeed 	13.999818651616
scalar RSUExampleScenario.node[35].veinsmobility 	totalDistance 	1930.6938146453
scalar RSUExampleScenario.node[35].veinsmobility 	totalCO2Emission 	518.74850619766
scalar RSUExampleScenario.node[36].veinsmobility 	startTime 	86.8
scalar RSUExampleScenario.node[36].veinsmobility 	totalTime 	263.2
scalar RSUExampleScenario.node[36].veinsmobility 	stopTime 	350
scalar RSUExampleScenario.node[36].veinsmobility 	minSpeed 	0
scalar RSUExampleScenario.node[36].veinsmobility 	maxSpeed 	13.999962195016
scalar RSUExampleScenario.node[36].veinsmobility 	totalDistance 	1897.2603740713
scalar RSUExampleScenario.node[36].veinsmobility 	totalCO2Emission 	510.15911719527
scalar RSUExampleScenario.node[37].veinsmobility 	startTime 	89.2
scalar RSUExampleScenario.node[37].veinsmobility 	totalTime 	260.8
scalar RSUExampleScenario.node[37].veinsmobility 	stopTime 	350
scalar RSUExampleScenario.node[37].veinsmobility 	minSpeed 	0
scalar RSUExampleScenario.node[37].veinsmobility 	maxSpeed 	13.999708788763
scalar RSUExampleScenario.node[37].veinsmobility 	totalDistance 	1863.7205702531
scalar RSUExampleScenario.node[37].veinsmobility 	totalCO2Emission 	505.12523813516
scalar RSUExampleScenario.node[38].veinsmobility 	startTime 	91.6
scalar RSUExampleScenario.node[38].veinsmobility 	totalTime 	258.4
scalar RSUExampleScenario.node[38].veinsmobility 	stopTime 	350
scalar RSUExampleScenario.node[38].veinsmobility 	minSpeed 	0
scalar RSUExampleScenario.node[38].veinsmobility 	maxSpeed 	13.999990461983
scalar RSUExampleScenario.node[38].veinsmobility 	totalDistance 	1831.700252587
scalar RSUExampleScenario.node[38].veinsmobility 	totalCO2Emission 	505.6938463461
scalar RSUExampleScenario.node[39].veinsmobility 	startTime 	94
scalar RSUExampleScenario.node[39].veinsmobility 	totalTime 	256
scalar RSUExampleScenario.node[39].veinsmobility 	stopTime 	350
scalar RSUExampleScenario.node[39].veinsmobility 	minSpeed 	0
scalar RSUExampleScenario.node[39].veinsmobility 	maxSpeed 	13.999445534155
scalar RSUExampleScenario.node[39].veinsmobility 	totalDistance 	1797.5907966245
scalar RSUExampleScenario.node[39].veinsmobility 	totalCO2Emission 	493.7119631317
scalar RSUExampleScenario.node[4].veinsmobility 	startTime 	9.7
scalar RSUExampleScenario.node[4].veinsmobility 	totalTime 	340.3
scalar RSUExampleScenario.node[4].veinsmobility 	stopTime 	350
scalar RSUExampleScenario.node[4].veinsmobility 	minSpeed 	0
scalar RSUExampleScenario.node[4].veinsmobility 	maxSpeed 	13.999989294941
scalar RSUExampleScenario.node[4].veinsmobility 	totalDistance 	2951.2420007315
scalar RSUExampleScenario.node[4].veinsmobility 	totalCO2Emission 	701.46441070001
scalar RSUExampleScenario.node[40].veinsmobility 	startTime 	96.5
scalar RSUExampleScenario.node[40].veinsmobility 	totalTime 	253.5
scalar RSUExampleScenario.node[40].veinsmobility 	stopTime 	350
scalar RSUExampleScenario.node[40].veinsmobility 	minSpeed 	0
scalar RSUExampleScenario.node[40].veinsmobility 	maxSpeed 	13.999691216957
scalar RSUExampleScenario.node[40].veinsmobility 	totalDistance 	1762.7538758168
scalar RSUExampleScenario.node[40].veinsmobility 	totalCO2Emission 	492.16730575226
scalar RSUExampleScenario.node[41].veinsmobility 	startTime 	98.9
scalar RSUExampleScenario.node[41].veinsmobility 	totalTime 	251.1
scalar RSUExampleScenario.node[41].veinsmobility 	stopTime 	350
scalar RSUExampleScenario.node[41].veinsmobility 	minSpeed 	0
scalar RSUExampleScenario.node[41].veinsmobility 	maxSpeed 	13.999965515384
scalar RSUExampleScenario.node[41].veinsmobility 	totalDistance 	1728.1779612873
scalar RSUExampleScenario.node[41].veinsmobility 	totalCO2Emission 	483.44094871738
scalar RSUExampleScenario.node[42].veinsmobility 	startTime 	101.3
scalar RSUExampleScenario.node[42].veinsmobility 	totalTime 	248.7
scalar RSUExampleScenario.node[42].veinsmobility 	stopTime 	350
scalar RSUExampleScenario.node[42].veinsmobility 	minSpeed 	0
scalar RSUExampleScenario.node[42].veinsmobility 	maxSpeed 	13.999714886672
scalar RSUExampleScenario.node[42].veinsmobility 	totalDistance 	1695.2589230825
scalar RSUExampleScenario.node[42].veinsmobility 	totalCO2Emission 	479.37035617072
scalar RSUExampleScenario.node[43].veinsmobility 	startTime 	103.7
scalar RSUExampleScenario.node[43].veinsmobility 	totalTime 	246.3
scalar RSUExampleScenario.node[43].veinsmobility 	stopTime 	350
scalar RSUExampleScenario.node[43].veinsmobility 	minSpeed 	0
scalar RSUExampleScenario.node[43].veinsmobility 	maxSpeed 	13.999944791622
scalar RSUExampleScenario.node[43].veinsmobility 	totalDistance 	1661.777268982
scalar RSUExampleScenario.node[43].veinsmobility 	totalCO2Emission 	471.29057130111
scalar RSUExampleScenario.node[44].veinsmobility 	startTime 	106.1
scalar RSUExampleScenario.node[44].veinsmobility 	totalTime 	243.9
scalar RSUExampleScenario.node[44].veinsmobility 	stopTime 	350
scalar RSUExampleScenario.node[44].veinsmobility 	minSpeed 	0
scalar RSUExampleScenario.node[44].veinsmobility 	maxSpeed 	13.999937874903
scalar RSUExampleScenario.node[44].veinsmobility 	totalDistance 	1627.5334053993
scalar RSUExampleScenario.node[44].veinsmobility 	totalCO2Emission 	467.80537088604
scalar RSUExampleScenario.node[45].veinsmobility 	startTime 	108.5
scalar RSUExampleScenario.node[45].veinsmobility 	totalTime 	241.5
scalar RSUExampleScenario.node[45].veinsmobility 	stopTime 	350
scalar RSUExampleScenario.node[45].veinsmobility 	minSpeed 	0
scalar RSUExampleScenario.node[45].veinsmobility 	maxSpeed 	13.999192186804
scalar RSUExampleScenario.node[45].veinsmobility 	totalDistance 	1594.3977428697
scalar RSUExampleScenario.node[45].veinsmobility 	totalCO2Emission 	461.47476758233
scalar RSUExampleScenario.node[46].veinsmobility 	startTime 	110.9
scalar RSUExampleScenario.node[46].veinsmobility 	totalTime 	239.1
scalar RSUExampleScenario.node[46].veinsmobility 	stopTime 	350
scalar RSUExampleScenario.node[46].veinsmobility 	minSpeed 	0
scalar RSUExampleScenario.node[46].veinsmobility 	maxSpeed 	13.999988323217
scalar RSUExampleScenario.node[46].veinsmobility 	totalDistance 	1560.7502486877
scalar RSUExampleScenario.node[46].veinsmobility 	totalCO2Emission 	452.73331100412
scalar RSUExampleScenario.node[47].veinsmobility 	startTime 	113.3
scalar RSUExampleScenario.node[47].veinsmobility 	totalTime 	236.7
scalar RSUExampleScenario.node[47].veinsmobility 	stopTime 	350
scalar RSUExampleScenario.node[47].veinsmobility 	minSpeed 	0
scalar RSUExampleScenario.node[47].veinsmobility 	maxSpeed 	13.999638130455
scalar RSUExampleScenario.node[47].veinsmobility 	totalDistance 	1526.7680742683
scalar RSUExampleScenario.node[47].veinsmobility 	totalCO2Emission 	449.31732184182
scalar RSUExampleScenario.node[48].veinsmobility 	startTime 	115.7
scalar RSUExampleScenario.node[48].veinsmobility 	totalTime 	234.3
scalar RSUExampleScenario.node[48].veinsmobility 	stopTime 	350
scalar RSUExampleScenario.node[48].veinsmobility 	minSpeed 	0
scalar RSUExampleScenario.node[48].veinsmobility 	maxSpeed 	13.999886999961
scalar RSUExampleScenario.node[48].veinsmobility 	totalDistance 	1493.2079524892
scalar RSUExampleScenario.node[48].veinsmobility 	totalCO2Emission 	444.92879912795
scalar RSUExampleScenario.node[49].veinsmobility 	startTime 	118.1
scalar RSUExampleScenario.node[49].veinsmobility 	totalTime 	231.9
scalar RSUExampleScenario.node[49].veinsmobility 	stopTime 	350
scalar RSUExampleScenario.node[49].veinsmobility 	minSpeed 	0
scalar RSUExampleScenario.node[49].veinsmobility 	maxSpeed 	13.999909332104
scalar RSUExampleScenario.node[49].veinsmobility 	totalDistance 	1461.0436670376
scalar RSUExampleScenario.node[49].veinsmobility 	totalCO2Emission 	436.65237664494
scalar RSUExampleScenario.node[5].veinsmobility 	startTime 	12.1
scalar RSUExampleScenario.node[5].veinsmobility 	totalTime 	337.9
scalar RSUExampleScenario.node[5].veinsmobility 	stopTime 	350
scalar RSUExampleScenario.node[5].veinsmobility 	minSpeed 	0
scalar RSUExampleScenario.node[5].veinsmobility 	maxSpeed 	13.99992320274
scalar RSUExampleScenario.node[5].veinsmobility 	totalDistance 	2915.4417327342
scalar RSUExampleScenario.node[5].veinsmobility 	totalCO2Emission 	685.12845512816
scalar RSUExampleScenario.node[50].veinsmobility 	startTime 	120.6
scalar RSUExampleScenario.node[50].veinsmobility 	totalTime 	229.4
scalar RSUExampleScenario.node[50].veinsmobility 	stopTime 	350
scalar RSUExampleScenario.node[50].veinsmobility 	minSpeed 	0
scalar RSUExampleScenario.node[50].veinsmobility 	maxSpeed 	13.999961678705
scalar RSUExampleScenario.node[50].veinsmobility 	totalDistance 	1426.7314132652
scalar RSUExampleScenario.node[50].veinsmobility 	totalCO2Emission 	432.99963754386
scalar RSUExampleScenario.node[51].veinsmobility 	startTime 	123
scalar RSUExampleScenario.node[51].veinsmobility 	totalTime 	227
scalar RSUExampleScenario.node[51].veinsmobility 	stopTime 	350
scalar RSUExampleScenario.node[51].veinsmobility 	minSpeed 	0
scalar RSUExampleScenario.node[51].veinsmobility 	maxSpeed 	13.999609445548
scalar RSUExampleScenario.node[51].veinsmobility 	totalDistance 	1393.1238830211
scalar RSUExampleScenario.node[51].veinsmobility 	totalCO2Emission 	426.39886971951
scalar RSUExampleScenario.node[52].veinsmobility 	startTime 	125.4
scalar RSUExampleScenario.node[52].veinsmobility 	totalTime 	224.6
scalar RSUExampleScenario.node[52].veinsmobility 	stopTime 	350
scalar RSUExampleScenario.node[52].veinsmobility 	minSpeed 	0
scalar RSUExampleScenario.node[52].veinsmobility 	maxSpeed 	13.999907726932
scalar RSUExampleScenario.node[52].veinsmobility 	totalDistance 	1360.1419309955
scalar RSUExampleScenario.node[52].veinsmobility 	totalCO2Emission 	424.49901053705
scalar RSUExampleScenario.node[53].veinsmobility 	startTime 	127.8
scalar RSUExampleScenario.node[53].veinsmobility 	totalTime 	222.2
scalar RSUExampleScenario.node[53].veinsmobility 	stopTime 	350
scalar RSUExampleScenario.node[53].veinsmobility 	minSpeed 	0
scalar RSUExampleScenario.node[53].veinsmobility 	maxSpeed 	13.999830422925
scalar RSUExampleScenario.node[53].veinsmobility 	totalDistance 	1325.6685176108
scalar RSUExampleScenario.node[53].veinsmobility 	totalCO2Emission 	416.64357347525
scalar RSUExampleScenario.node[54].veinsmobility 	startTime 	130.2
scalar RSUExampleScenario.node[54].veinsmobility 	totalTime 	219.8
scalar RSUExampleScenario.node[54].veinsmobility 	stopTime 	350
scalar RSUExampleScenario.node[54].veinsmobility 	minSpeed 	0
scalar RSUExampleScenario.node[54].veinsmobility 	maxSpeed 	13.999791652029
scalar RSUExampleScenario.node[54].veinsmobility 	totalDistance 	1291.9870022825
scalar RSUExampleScenario.node[54].veinsmobility 	totalCO2Emission 	411.79373736189
scalar RSUExampleScenario.node[55].veinsmobility 	startTime 	132.6
scalar RSUExampleScenario.node[55].veinsmobility 	totalTime 	217.4
scalar RSUExampleScenario.node[55].veinsmobility 	stopTime 	350
scalar RSUExampleScenario.node[55].veinsmobility 	minSpeed 	0
scalar RSUExampleScenario.node[55].veinsmobility 	maxSpeed 	13.999611030319
scalar RSUExampleScenario.node[55].veinsmobility 	totalDistance 	1259.8274924149
scalar RSUExampleScenario.node[55].veinsmobility 	totalCO2Emission 	405.82356670221
scalar RSUExampleScenario.node[56].veinsmobility 	startTime 	135
scalar RSUExampleScenario.node[56].veinsmobility 	totalTime 	215
scalar RSUExampleScenario.node[56].veinsmobility 	stopTime 	350
scalar RSUExampleScenario.node[56].veinsmobility 	minSpeed 	0
scalar RSUExampleScenario.node[56].veinsmobility 	maxSpeed 	13.999759632014
scalar RSUExampleScenario.node[56].veinsmobility 	totalDistance 	1225.5205612745
scalar RSUExampleScenario.node[56].veinsmobility 	totalCO2Emission 	399.59902989578
scalar RSUExampleScenario.node[57].veinsmobility 	startTime 	137.4
scalar RSUExampleScenario.node[57].veinsmobility 	totalTime 	212.6
scalar RSUExampleScenario.node[57].veinsmobility 	stopTime 	350
scalar RSUExampleScenario.node[57].veinsmobility 	minSpeed 	0
scalar RSUExampleScenario.node[57].veinsmobility 	maxSpeed 	13.99986077351
scalar RSUExampleScenario.node[57].veinsmobility 	totalDistance 	1192.8374768577
scalar RSUExampleScenario.node[57].veinsmobility 	totalCO2Emission 	393.84283753966
scalar RSUExampleScenario.node[58].veinsmobility 	startTime 	139.8
scalar RSUExampleScenario.node[58].veinsmobility 	totalTime 	210.2
scalar RSUExampleScenario.node[58].veinsmobility 	stopTime 	350
scalar RSUExampleScenario.node[58].veinsmobility 	minSpeed 	0
scalar RSUExampleScenario.node[58].veinsmobility 	maxSpeed 	13.999793938776
scalar RSUExampleScenario.node[58].veinsmobility 	totalDistance 	1159.7062811474
scalar RSUExampleScenario.node[58].veinsmobility 	totalCO2Emission 	388.269001866
scalar RSUExampleScenario.node[59].veinsmobility 	startTime 	142.2
scalar RSUExampleScenario.node[59].veinsmobility 	totalTime 	207.8
scalar RSUExampleScenario.node[59].veinsmobility 	stopTime 	350
scalar RSUExampleScenario.node[59].veinsmobility 	minSpeed 	0
scalar RSUExampleScenario.node[59].veinsmobility 	maxSpeed 	13.999923741238
scalar RSUExampleScenario.node[59].veinsmobility 	totalDistance 	1124.8065864486
scalar RSUExampleScenario.node[59].veinsmobility 	totalCO2Emission 	381.73348679806
scalar RSUExampleScenario.node[6].veinsmobility 	startTime 	14.5
scalar RSUExampleScenario.node[6].veinsmobility 	totalTime 	335.5
scalar RSUExampleScenario.node[6].veinsmobility 	stopTime 	350
scalar RSUExampleScenario.node[6].veinsmobility 	minSpeed 	0
scalar RSUExampleScenario.node[6].veinsmobility 	maxSpeed 	13.999875232617
scalar RSUExampleScenario.node[6].veinsmobility 	totalDistance 	2906.9688196292
scalar RSUExampleScenario.node[6].veinsmobility 	totalCO2Emission 	683.99319285073
scalar RSUExampleScenario.node[60].veinsmobility 	startTime 	144.7
scalar RSUExampleScenario.node[60].veinsmobility 	totalTime 	205.3
scalar RSUExampleScenario.node[60].veinsmobility 	stopTime 	350
scalar RSUExampleScenario.node[60].veinsmobility 	minSpeed 	0
scalar RSUExampleScenario.node[60].veinsmobility 	maxSpeed 	13.999717066148
scalar RSUExampleScenario.node[60].veinsmobility 	totalDistance 	1091.1071564854
scalar RSUExampleScenario.node[60].veinsmobility 	totalCO2Emission 	376.03337828425
scalar RSUExampleScenario.node[61].veinsmobility 	startTime 	147.1
scalar RSUExampleScenario.node[61].veinsmobility 	totalTime 	202.9
scalar RSUExampleScenario.node[61].veinsmobility 	stopTime 	350
scalar RSUExampleScenario.node[61].veinsmobility 	minSpeed 	0
scalar RSUExampleScenario.node[61].veinsmobility 	maxSpeed 	13.999754801486
scalar RSUExampleScenario.node[61].veinsmobility 	totalDistance 	1058.9955082659
scalar RSUExampleScenario.node[61].veinsmobility 	totalCO2Emission 	367.91986097462
scalar RSUExampleScenario.node[62].veinsmobility 	startTime 	149.5
scalar RSUExampleScenario.node[62].veinsmobility 	totalTime 	200.5
scalar RSUExampleScenario.node[62].veinsmobility 	stopTime 	350
scalar RSUExampleScenario.node[62].veinsmobility 	minSpeed 	0
scalar RSUExampleScenario.node[62].veinsmobility 	maxSpeed 	13.999934149368
scalar RSUExampleScenario.node[62].veinsmobility 	totalDistance 	1025.9833009529
scalar RSUExampleScenario.node[62].veinsmobility 	totalCO2Emission 	367.38601725732
scalar RSUExampleScenario.node[63].veinsmobility 	startTime 	151.9
scalar RSUExampleScenario.node[63].veinsmobility 	totalTime 	198.1
scalar RSUExampleScenario.node[63].veinsmobility 	stopTime 	350
scalar RSUExampleScenario.node[63].veinsmobility 	minSpeed 	0
scalar RSUExampleScenario.node[63].veinsmobility 	maxSpeed 	13.999749410909
scalar RSUExampleScenario.node[63].veinsmobility 	totalDistance 	984.50165576592
scalar RSUExampleScenario.node[63].veinsmobility 	totalCO2Emission 	352.90170356469
scalar RSUExampleScenario.node[64].veinsmobility 	startTime 	154.3
scalar RSUExampleScenario.node[64].veinsmobility 	totalTime 	195.7
scalar RSUExampleScenario.node[64].veinsmobility 	stopTime 	350
scalar RSUExampleScenario.node[64].veinsmobility 	minSpeed 	0
scalar RSUExampleScenario.node[64].veinsmobility 	maxSpeed 	13.999529888937
scalar RSUExampleScenario.node[64].veinsmobility 	totalDistance 	953.78260908129
scalar RSUExampleScenario.node[64].veinsmobility 	totalCO2Emission 	337.14261514365
scalar RSUExampleScenario.node[65].veinsmobility 	startTime 	156.7
scalar RSUExampleScenario.node[65].veinsmobility 	totalTime 	193.3
scalar RSUExampleScenario.node[65].veinsmobility 	stopTime 	350
scalar RSUExampleScenario.node[65].veinsmobility 	minSpeed 	0
scalar RSUExampleScenario.node[65].veinsmobility 	maxSpeed 	13.998325762532
scalar RSUExampleScenario.node[65].veinsmobility 	totalDistance 	940.38514610742
scalar RSUExampleScenario.node[65].veinsmobility 	totalCO2Emission 	331.09612169896
scalar RSUExampleScenario.node[66].veinsmobility 	startTime 	159.1
scalar RSUExampleScenario.node[66].veinsmobility 	totalTime 	190.9
scalar RSUExampleScenario.node[66].veinsmobility 	stopTime 	350
scalar RSUExampleScenario.node[66].veinsmobility 	minSpeed 	0
scalar RSUExampleScenario.node[66].veinsmobility 	maxSpeed 	13.999407115306
scalar RSUExampleScenario.node[66].veinsmobility 	totalDistance 	927.9556189614
scalar RSUExampleScenario.node[66].veinsmobility 	totalCO2Emission 	327.75772729732
scalar RSUExampleScenario.node[67].veinsmobility 	startTime 	161.5
scalar RSUExampleScenario.node[67].veinsmobility 	totalTime 	188.5
scalar RSUExampleScenario.node[67].veinsmobility 	stopTime 	350
scalar RSUExampleScenario.node[67].veinsmobility 	minSpeed 	0
scalar RSUExampleScenario.node[67].veinsmobility 	maxSpeed 	13.99984265906
scalar RSUExampleScenario.node[67].veinsmobility 	totalDistance 	913.02466911708
scalar RSUExampleScenario.node[67].veinsmobility 	totalCO2Emission 	323.99156636529
scalar RSUExampleScenario.node[68].veinsmobility 	startTime 	163.9
scalar RSUExampleScenario.node[68].veinsmobility 	totalTime 	186.1
scalar RSUExampleScenario.node[68].veinsmobility 	stopTime 	350
scalar RSUExampleScenario.node[68].veinsmobility 	minSpeed 	0
scalar RSUExampleScenario.node[68].veinsmobility 	maxSpeed 	13.999471795929
scalar RSUExampleScenario.node[68].veinsmobility 	totalDistance 	893.8997386001
scalar RSUExampleScenario.node[68].veinsmobility 	totalCO2Emission 	321.20998191973
scalar RSUExampleScenario.node[69].veinsmobility 	startTime 	166.3
scalar RSUExampleScenario.node[69].veinsmobility 	totalTime 	183.7
scalar RSUExampleScenario.node[69].veinsmobility 	stopTime 	350
scalar RSUExampleScenario.node[69].veinsmobility 	minSpeed 	0
scalar RSUExampleScenario.node[69].veinsmobility 	maxSpeed 	13.999300716745
scalar RSUExampleScenario.node[69].veinsmobility 	totalDistance 	860.45463136876
scalar RSUExampleScenario.node[69].veinsmobility 	totalCO2Emission 	314.68680379204
scalar RSUExampleScenario.node[7].veinsmobility 	startTime 	16.9
scalar RSUExampleScenario.node[7].veinsmobility 	totalTime 	333.1
scalar RSUExampleScenario.node[7].veinsmobility 	stopTime 	350
scalar RSUExampleScenario.node[7].veinsmobility 	minSpeed 	0
scalar RSUExampleScenario.node[7].veinsmobility 	maxSpeed 	13.999988048202
scalar RSUExampleScenario.node[7].veinsmobility 	totalDistance 	2886.5070371577
scalar RSUExampleScenario.node[7].veinsmobility 	totalCO2Emission 	676.76714600784
scalar RSUExampleScenario.node[70].veinsmobility 	startTime 	168.8
scalar RSUExampleScenario.node[70].veinsmobility 	totalTime 	181.2
scalar RSUExampleScenario.node[70].veinsmobility 	stopTime 	350
scalar RSUExampleScenario.node[70].veinsmobility 	minSpeed 	0
scalar RSUExampleScenario.node[70].veinsmobility 	maxSpeed 	13.999987280727
scalar RSUExampleScenario.node[70].veinsmobility 	totalDistance 	827.49270866418
scalar RSUExampleScenario.node[70].veinsmobility 	totalCO2Emission 	311.25387509748
scalar RSUExampleScenario.node[71].veinsmobility 	startTime 	171.2
scalar RSUExampleScenario.node[71].veinsmobility 	totalTime 	178.8
scalar RSUExampleScenario.node[71].veinsmobility 	stopTime 	350
scalar RSUExampleScenario.node[71].veinsmobility 	minSpeed 	0
scalar RSUExampleScenario.node[71].veinsmobility 	maxSpeed 	13.999803930509
scalar RSUExampleScenario.node[71].veinsmobility 	totalDistance 	793.73721076544
scalar RSUExampleScenario.node[71].veinsmobility 	totalCO2Emission 	305.52573520508
scalar RSUExampleScenario.node[72].veinsmobility 	startTime 	173.6
scalar RSUExampleScenario.node[72].veinsmobility 	totalTime 	176.4
scalar RSUExampleScenario.node[72].veinsmobility 	stopTime 	350
scalar RSUExampleScenario.node[72].veinsmobility 	minSpeed 	0
scalar RSUExampleScenario.node[72].veinsmobility 	maxSpeed 	13.999402867891
scalar RSUExampleScenario.node[72].veinsmobility 	totalDistance 	759.18776996229
scalar RSUExampleScenario.node[72].veinsmobility 	totalCO2Emission 	298.89063632024
scalar RSUExampleScenario.node[73].veinsmobility 	startTime 	176
scalar RSUExampleScenario.node[73].veinsmobility 	totalTime 	174
scalar RSUExampleScenario.node[73].veinsmobility 	stopTime 	350
scalar RSUExampleScenario.node[73].veinsmobility 	minSpeed 	0
scalar RSUExampleScenario.node[73].veinsmobility 	maxSpeed 	13.999089209554
scalar RSUExampleScenario.node[73].veinsmobility 	totalDistance 	726.22725078003
scalar RSUExampleScenario.node[73].veinsmobility 	totalCO2Emission 	292.82712777974
scalar RSUExampleScenario.node[74].veinsmobility 	startTime 	178.4
scalar RSUExampleScenario.node[74].veinsmobility 	totalTime 	171.6
scalar RSUExampleScenario.node[74].veinsmobility 	stopTime 	350
scalar RSUExampleScenario.node[74].veinsmobility 	minSpeed 	0
scalar RSUExampleScenario.node[74].veinsmobility 	maxSpeed 	13.999085359133
scalar RSUExampleScenario.node[74].veinsmobility 	totalDistance 	691.23341943701
scalar RSUExampleScenario.node[74].veinsmobility 	totalCO2Emission 	287.05733865944
scalar RSUExampleScenario.node[75].veinsmobility 	startTime 	180.8
scalar RSUExampleScenario.node[75].veinsmobility 	totalTime 	169.2
scalar RSUExampleScenario.node[75].veinsmobility 	stopTime 	350
scalar RSUExampleScenario.node[75].veinsmobility 	minSpeed 	0
scalar RSUExampleScenario.node[75].veinsmobility 	maxSpeed 	13.99984482083
scalar RSUExampleScenario.node[75].veinsmobility 	totalDistance 	658.46335995169
scalar RSUExampleScenario.node[75].veinsmobility 	totalCO2Emission 	282.05731005617
scalar RSUExampleScenario.node[76].veinsmobility 	startTime 	183.2
scalar RSUExampleScenario.node[76].veinsmobility 	totalTime 	166.8
scalar RSUExampleScenario.node[76].veinsmobility 	stopTime 	350
scalar RSUExampleScenario.node[76].veinsmobility 	minSpeed 	0
scalar RSUExampleScenario.node[76].veinsmobility 	maxSpeed 	13.999429190473
scalar RSUExampleScenario.node[76].veinsmobility 	totalDistance 	623.83569224951
scalar RSUExampleScenario.node[76].veinsmobility 	totalCO2Emission 	276.45224608211
scalar RSUExampleScenario.node[77].veinsmobility 	startTime 	185.6
scalar RSUExampleScenario.node[77].veinsmobility 	totalTime 	164.4
scalar RSUExampleScenario.node[77].veinsmobility 	stopTime 	350
scalar RSUExampleScenario.node[77].veinsmobility 	minSpeed 	0
scalar RSUExampleScenario.node[77].veinsmobility 	maxSpeed 	13.999291292839
scalar RSUExampleScenario.node[77].veinsmobility 	totalDistance 	591.2497390437
scalar RSUExampleScenario.node[77].veinsmobility 	totalCO2Emission 	269.96332950211
scalar RSUExampleScenario.node[78].veinsmobility 	startTime 	188
scalar RSUExampleScenario.node[78].veinsmobility 	totalTime 	162
scalar RSUExampleScenario.node[78].veinsmobility 	stopTime 	350
scalar RSUExampleScenario.node[78].veinsmobility 	minSpeed 	0
scalar RSUExampleScenario.node[78].veinsmobility 	maxSpeed 	13.999350427066
scalar RSUExampleScenario.node[78].veinsmobility 	totalDistance 	556.67743515264
scalar RSUExampleScenario.node[78].veinsmobility 	totalCO2Emission 	265.09758263295
scalar RSUExampleScenario.node[79].veinsmobility 	startTime 	190.4
scalar RSUExampleScenario.node[79].veinsmobility 	totalTime 	159.6
scalar RSUExampleScenario.node[79].veinsmobility 	stopTime 	350
scalar RSUExampleScenario.node[79].veinsmobility 	minSpeed 	0
scalar RSUExampleScenario.node[79].veinsmobility 	maxSpeed 	13.999930595332
scalar RSUExampleScenario.node[79].veinsmobility 	totalDistance 	524.00988394262
scalar RSUExampleScenario.node[79].veinsmobility 	totalCO2Emission 	259.49059314203
scalar RSUExampleScenario.node[8].veinsmobility 	startTime 	19.3
scalar RSUExampleScenario.node[8].veinsmobility 	totalTime 	330.7
scalar RSUExampleScenario.node[8].veinsmobility 	stopTime 	350
scalar RSUExampleScenario.node[8].veinsmobility 	minSpeed 	0
scalar RSUExampleScenario.node[8].veinsmobility 	maxSpeed 	13.999967772739
scalar RSUExampleScenario.node[8].veinsmobility 	totalDistance 	2866.1539076603
scalar RSUExampleScenario.node[8].veinsmobility 	totalCO2Emission 	672.15927921374
scalar RSUExampleScenario.node[80].veinsmobility 	startTime 	192.9
scalar RSUExampleScenario.node[80].veinsmobility 	totalTime 	157.1
scalar RSUExampleScenario.node[80].veinsmobility 	stopTime 	350
scalar RSUExampleScenario.node[80].veinsmobility 	minSpeed 	0
scalar RSUExampleScenario.node[80].veinsmobility 	maxSpeed 	13.999971597583
scalar RSUExampleScenario.node[80].veinsmobility 	totalDistance 	490.68433688158
scalar RSUExampleScenario.node[80].veinsmobility 	totalCO2Emission 	254.50360864715
scalar RSUExampleScenario.node[81].veinsmobility 	startTime 	195.3
scalar RSUExampleScenario.node[81].veinsmobility 	totalTime 	154.7
scalar RSUExampleScenario.node[81].veinsmobility 	stopTime 	350
scalar RSUExampleScenario.node[81].veinsmobility 	minSpeed 	0
scalar RSUExampleScenario.node[81].veinsmobility 	maxSpeed 	13.999596658989
scalar RSUExampleScenario.node[81].veinsmobility 	totalDistance 	457.45915458586
scalar RSUExampleScenario.node[81].veinsmobility 	totalCO2Emission 	247.4476774631
scalar RSUExampleScenario.node[82].veinsmobility 	startTime 	197.7
scalar RSUExampleScenario.node[82].veinsmobility 	totalTime 	152.3
scalar RSUExampleScenario.node[82].veinsmobility 	stopTime 	350
scalar RSUExampleScenario.node[82].veinsmobility 	minSpeed 	0
scalar RSUExampleScenario.node[82].veinsmobility 	maxSpeed 	13.999499640961
scalar RSUExampleScenario.node[82].veinsmobility 	totalDistance 	421.69655436386
scalar RSUExampleScenario.node[82].veinsmobility 	totalCO2Emission 	242.65408803849
scalar RSUExampleScenario.node[83].veinsmobility 	startTime 	200.1
scalar RSUExampleScenario.node[83].veinsmobility 	totalTime 	149.9
scalar RSUExampleScenario.node[83].veinsmobility 	stopTime 	350
scalar RSUExampleScenario.node[83].veinsmobility 	minSpeed 	0
scalar RSUExampleScenario.node[83].veinsmobility 	maxSpeed 	13.999726950643
scalar RSUExampleScenario.node[83].veinsmobility 	totalDistance 	388.66048156023
scalar RSUExampleScenario.node[83].veinsmobility 	totalCO2Emission 	236.59214701941
scalar RSUExampleScenario.node[84].veinsmobility 	startTime 	202.5
scalar RSUExampleScenario.node[84].veinsmobility 	totalTime 	147.5
scalar RSUExampleScenario.node[84].veinsmobility 	stopTime 	350
scalar RSUExampleScenario.node[84].veinsmobility 	minSpeed 	0
scalar RSUExampleScenario.node[84].veinsmobility 	maxSpeed 	13.994532917971
scalar RSUExampleScenario.node[84].veinsmobility 	totalDistance 	355.59716580827
scalar RSUExampleScenario.node[84].veinsmobility 	totalCO2Emission 	230.90257619988
scalar RSUExampleScenario.node[85].veinsmobility 	startTime 	204.9
scalar RSUExampleScenario.node[85].veinsmobility 	totalTime 	145.1
scalar RSUExampleScenario.node[85].veinsmobility 	stopTime 	350
scalar RSUExampleScenario.node[85].veinsmobility 	minSpeed 	0
scalar RSUExampleScenario.node[85].veinsmobility 	maxSpeed 	13.992832316242
scalar RSUExampleScenario.node[85].veinsmobility 	totalDistance 	321.22704797573
scalar RSUExampleScenario.node[85].veinsmobility 	totalCO2Emission 	225.13596853662
scalar RSUExampleScenario.node[86].veinsmobility 	startTime 	207.3
scalar RSUExampleScenario.node[86].veinsmobility 	totalTime 	142.7
scalar RSUExampleScenario.node[86].veinsmobility 	stopTime 	350
scalar RSUExampleScenario.node[86].veinsmobility 	minSpeed 	0
scalar RSUExampleScenario.node[86].veinsmobility 	maxSpeed 	13.831455378763
scalar RSUExampleScenario.node[86].veinsmobility 	totalDistance 	285.40030562661
scalar RSUExampleScenario.node[86].veinsmobility 	totalCO2Emission 	217.08253901239
scalar RSUExampleScenario.node[87].veinsmobility 	startTime 	209.7
scalar RSUExampleScenario.node[87].veinsmobility 	totalTime 	140.3
scalar RSUExampleScenario.node[87].veinsmobility 	stopTime 	350
scalar RSUExampleScenario.node[87].veinsmobility 	minSpeed 	0
scalar RSUExampleScenario.node[87].veinsmobility 	maxSpeed 	13.84214399108
scalar RSUExampleScenario.node[87].veinsmobility 	totalDistance 	247.90950049877
scalar RSUExampleScenario.node[87].veinsmobility 	totalCO2Emission 	201.14357084196
scalar RSUExampleScenario.node[88].veinsmobility 	startTime 	212.1
scalar RSUExampleScenario.node[88].veinsmobility 	totalTime 	137.9
scalar RSUExampleScenario.node[88].veinsmobility 	stopTime 	350
scalar RSUExampleScenario.node[88].veinsmobility 	minSpeed 	0
scalar RSUExampleScenario.node[88].veinsmobility 	maxSpeed 	13.765325624871
scalar RSUExampleScenario.node[88].veinsmobility 	totalDistance 	225.56461080829
scalar RSUExampleScenario.node[88].veinsmobility 	totalCO2Emission 	189.5478350225
scalar RSUExampleScenario.node[89].veinsmobility 	startTime 	214.5
scalar RSUExampleScenario.node[89].veinsmobility 	totalTime 	135.5
scalar RSUExampleScenario.node[89].veinsmobility 	stopTime 	350
scalar RSUExampleScenario.node[89].veinsmobility 	minSpeed 	0
scalar RSUExampleScenario.node[89].veinsmobility 	maxSpeed 	13.853587457224
scalar RSUExampleScenario.node[89].veinsmobility 	totalDistance 	215.08857047403
scalar RSUExampleScenario.node[89].veinsmobility 	totalCO2Emission 	185.8859590824
scalar RSUExampleScenario.node[9].veinsmobility 	startTime 	21.7
scalar RSUExampleScenario.node[9].veinsmobility 	totalTime 	328.3
scalar RSUExampleScenario.node[9].veinsmobility 	stopTime 	350
scalar RSUExampleScenario.node[9].veinsmobility 	minSpeed 	0
scalar RSUExampleScenario.node[9].veinsmobility 	maxSpeed 	13.999918319515
scalar RSUExampleScenario.node[9].veinsmobility 	totalDistance 	2825.6153061119
scalar RSUExampleScenario.node[9].veinsmobility 	totalCO2Emission 	671.74840082246
scalar RSUExampleScenario.node[90].veinsmobility 	startTime 	217
scalar RSUExampleScenario.node[90].veinsmobility 	totalTime 	133
scalar RSUExampleScenario.node[90].veinsmobility 	stopTime 	350
scalar RSUExampleScenario.node[90].veinsmobility 	minSpeed 	0
scalar RSUExampleScenario.node[90].veinsmobility 	maxSpeed 	13.824881923109
scalar RSUExampleScenario.node[90].veinsmobility 	totalDistance 	201.83116964476
scalar RSUExampleScenario.node[90].veinsmobility 	totalCO2Emission 	182.61346554628
scalar RSUExampleScenario.node[91].veinsmobility 	startTime 	219.4
scalar RSUExampleScenario.node[91].veinsmobility 	totalTime 	130.6
scalar RSUExampleScenario.node[91].veinsmobility 	stopTime 	350
scalar RSUExampleScenario.node[91].veinsmobility 	minSpeed 	0
scalar RSUExampleScenario.node[91].veinsmobility 	maxSpeed 	13.796183790713
scalar RSUExampleScenario.node[91].veinsmobility 	totalDistance 	185.12840026074
scalar RSUExampleScenario.node[91].veinsmobility 	totalCO2Emission 	179.98967841544
scalar RSUExampleScenario.node[92].veinsmobility 	startTime 	221.8
scalar RSUExampleScenario.node[92].veinsmobility 	totalTime 	128.2
scalar RSUExampleScenario.node[92].veinsmobility 	stopTime 	350
scalar RSUExampleScenario.node[92].veinsmobility 	minSpeed 	0
scalar RSUExampleScenario.node[92].veinsmobility 	maxSpeed 	13.830000508991
scalar RSUExampleScenario.node[92].veinsmobility 	totalDistance 	150.14834915658
scalar RSUExampleScenario.node[92].veinsmobility 	totalCO2Emission 	166.82637297971
scalar RSUExampleScenario.node[93].veinsmobility 	startTime 	224.2
scalar RSUExampleScenario.node[93].veinsmobility 	totalTime 	125.8
scalar RSUExampleScenario.node[93].veinsmobility 	stopTime 	350
scalar RSUExampleScenario.node[93].veinsmobility 	minSpeed 	0
scalar RSUExampleScenario.node[93].veinsmobility 	maxSpeed 	13.884373558096
scalar RSUExampleScenario.node[93].veinsmobility 	totalDistance 	123.60785952611
scalar RSUExampleScenario.node[93].veinsmobility 	totalCO2Emission 	154.64894829166
scalar RSUExampleScenario.node[94].veinsmobility 	startTime 	226.6
scalar RSUExampleScenario.node[94].veinsmobility 	totalTime 	123.4
scalar RSUExampleScenario.node[94].veinsmobility 	stopTime 	350
scalar RSUExampleScenario.node[94].veinsmobility 	minSpeed 	0
scalar RSUExampleScenario.node[94].veinsmobility 	maxSpeed 	13.80748481045
scalar RSUExampleScenario.node[94].veinsmobility 	totalDistance 	112.29307241556
scalar RSUExampleScenario.node[94].veinsmobility 	totalCO2Emission 	148.44008782656
scalar RSUExampleScenario.node[95].veinsmobility 	startTime 	229
scalar RSUExampleScenario.node[95].veinsmobility 	totalTime 	121
scalar RSUExampleScenario.node[95].veinsmobility 	stopTime 	350
scalar RSUExampleScenario.node[95].veinsmobility 	minSpeed 	0
scalar RSUExampleScenario.node[95].veinsmobility 	maxSpeed 	13.790547001273
scalar RSUExampleScenario.node[95].veinsmobility 	totalDistance 	99.138904698711
scalar RSUExampleScenario.node[95].veinsmobility 	totalCO2Emission 	144.9348971146
scalar RSUExampleScenario.node[96].veinsmobility 	startTime 	231.4
scalar RSUExampleScenario.node[96].veinsmobility 	totalTime 	118.6
scalar RSUExampleScenario.node[96].veinsmobility 	stopTime 	350
scalar RSUExampleScenario.node[96].veinsmobility 	minSpeed 	0
scalar RSUExampleScenario.node[96].veinsmobility 	maxSpeed 	13.886167812659
scalar RSUExampleScenario.node[96].veinsmobility 	totalDistance 	83.198367953876
scalar RSUExampleScenario.node[96].veinsmobility 	totalCO2Emission 	142.75430660446
scalar RSUExampleScenario.node[97].veinsmobility 	startTime 	233.8
scalar RSUExampleScenario.node[97].veinsmobility 	totalTime 	116.2
scalar RSUExampleScenario.node[97].veinsmobility 	stopTime 	350
scalar RSUExampleScenario.node[97].veinsmobility 	minSpeed 	0
scalar RSUExampleScenario.node[97].veinsmobility 	maxSpeed 	11.917824604226
scalar RSUExampleScenario.node[97].veinsmobility 	totalDistance 	54.28055158022
scalar RSUExampleScenario.node[97].veinsmobility 	totalCO2Emission 	133.33893684304
scalar RSUExampleScenario.node[98].veinsmobility 	startTime 	236.2
scalar RSUExampleScenario.node[98].veinsmobility 	totalTime 	113.8
scalar RSUExampleScenario.node[98].veinsmobility 	stopTime 	350
scalar RSUExampleScenario.node[98].veinsmobility 	minSpeed 	0
scalar RSUExampleScenario.node[98].veinsmobility 	maxSpeed 	7.7288652308562
scalar RSUExampleScenario.node[98].veinsmobility 	totalDistance 	21.557893624531
scalar RSUExampleScenario.node[98].veinsmobility 	totalCO2Emission 	119.29605239884
scalar RSUExampleScenario.node[99].veinsmobility 	startTime 	238.6
scalar RSUExampleScenario.node[99].veinsmobility 	totalTime 	111.4
scalar RSUExampleScenario.node[99].veinsmobility 	stopTime 	350
scalar RSUExampleScenario.node[99].veinsmobility 	minSpeed 	0
scalar RSUExampleScenario.node[99].veinsmobility 	maxSpeed 	3.2342169288303
scalar RSUExampleScenario.node[99].veinsmobility 	totalDistance 	3.4782230458191
scalar RSUExampleScenario.node[99].veinsmobility 	totalCO2Emission 	109.92840432239
