version 2
run statistic5-558-20150313-19:41:33-22068
attr c 9
attr configname statistic5
attr datetime 20150313-19:41:33
attr experiment statistic5
attr inifile omnetpp.ini
attr iterationvars "$p=1/5, $c=9"
attr iterationvars2 "$p=1/5, $c=9, $repetition=58"
attr measurement "$p=1/5, $c=9"
attr network RSUExampleScenario
attr p 1/5
attr processid 22068
attr repetition 58
attr replication #58
attr resultdir results
attr runnumber 558
attr seedset 558

scalar . 	c 	9
scalar RSUExampleScenario.rsu[0].appl 	NumberofCH 	22
scalar RSUExampleScenario.rsu[0].appl 	NumberofON 	76
scalar RSUExampleScenario.rsu[0].appl 	NumberofFN 	2
scalar RSUExampleScenario.rsu[0].appl 	meanClusterNodes 	22
scalar RSUExampleScenario.rsu[0].appl 	varClusterNodes 	4.6904157598234
scalar RSUExampleScenario.rsu[0].appl 	sumCHutility 	826.15997432624
scalar RSUExampleScenario.rsu[0].appl 	meanCHutility 	22
scalar RSUExampleScenario.rsu[0].appl 	varCHutility 	4.6904157598234
scalar RSUExampleScenario.rsu[0].appl 	sumDiffCHutility 	-79.046859436678
scalar RSUExampleScenario.rsu[0].appl 	meanDiffCHutility 	22
scalar RSUExampleScenario.rsu[0].appl 	varDiffCHutility 	4.6904157598234
scalar RSUExampleScenario.rsu[0].appl 	expectedCHutility 	747.11311488956
scalar RSUExampleScenario.rsu[0].appl 	meanExpectedCHutility 	22
scalar RSUExampleScenario.rsu[0].appl 	varExpectedCHutility 	4.6904157598234
