version 2
run statisticRVV-169-20150325-19:45:11-8496
attr c 10
attr configname statisticRVV
attr datetime 20150325-19:45:11
attr experiment statisticRVV
attr inifile omnetpp.ini
attr iterationvars "$sc=\"erlangen-medium.launchd.xml\", $p=1/10, $c=10"
attr iterationvars2 "$sc=\"erlangen-medium.launchd.xml\", $p=1/10, $c=10, $repetition=9"
attr measurement "$sc=\"erlangen-medium.launchd.xml\", $p=1/10, $c=10"
attr network RSUExampleScenario
attr p 1/10
attr processid 8496
attr repetition 9
attr replication #9
attr resultdir results
attr runnumber 169
attr sc "\"erlangen-medium.launchd.xml\""
attr seedset 169

scalar . 	c 	10
scalar RSUExampleScenario.node[0].veinsmobility 	startTime 	0.1
scalar RSUExampleScenario.node[0].veinsmobility 	totalTime 	264.4
scalar RSUExampleScenario.node[0].veinsmobility 	stopTime 	264.6
scalar RSUExampleScenario.node[0].veinsmobility 	minSpeed 	0.25129531986848
scalar RSUExampleScenario.node[0].veinsmobility 	maxSpeed 	13.999919225406
scalar RSUExampleScenario.node[0].veinsmobility 	totalDistance 	3409.5129345998
scalar RSUExampleScenario.node[0].veinsmobility 	totalCO2Emission 	691.79266658337
scalar RSUExampleScenario.node[1].veinsmobility 	startTime 	3.1
scalar RSUExampleScenario.node[1].veinsmobility 	totalTime 	265.3
scalar RSUExampleScenario.node[1].veinsmobility 	stopTime 	268.5
scalar RSUExampleScenario.node[1].veinsmobility 	minSpeed 	0.2559439694758
scalar RSUExampleScenario.node[1].veinsmobility 	maxSpeed 	13.999986288815
scalar RSUExampleScenario.node[1].veinsmobility 	totalDistance 	3409.4658057414
scalar RSUExampleScenario.node[1].veinsmobility 	totalCO2Emission 	688.94049103545
scalar RSUExampleScenario.node[2].veinsmobility 	startTime 	6.1
scalar RSUExampleScenario.node[2].veinsmobility 	totalTime 	266.1
scalar RSUExampleScenario.node[2].veinsmobility 	stopTime 	272.3
scalar RSUExampleScenario.node[2].veinsmobility 	minSpeed 	0.25462071913201
scalar RSUExampleScenario.node[2].veinsmobility 	maxSpeed 	13.999998851148
scalar RSUExampleScenario.node[2].veinsmobility 	totalDistance 	3409.9499818831
scalar RSUExampleScenario.node[2].veinsmobility 	totalCO2Emission 	693.17879762858
scalar RSUExampleScenario.node[3].veinsmobility 	startTime 	9.1
scalar RSUExampleScenario.node[3].veinsmobility 	totalTime 	266.4
scalar RSUExampleScenario.node[3].veinsmobility 	stopTime 	275.6
scalar RSUExampleScenario.node[3].veinsmobility 	minSpeed 	0.24904748315248
scalar RSUExampleScenario.node[3].veinsmobility 	maxSpeed 	13.999956076555
scalar RSUExampleScenario.node[3].veinsmobility 	totalDistance 	3409.3166957225
scalar RSUExampleScenario.node[3].veinsmobility 	totalCO2Emission 	688.9403885955
scalar RSUExampleScenario.node[4].veinsmobility 	startTime 	12.1
scalar RSUExampleScenario.node[4].veinsmobility 	totalTime 	266.8
scalar RSUExampleScenario.node[4].veinsmobility 	stopTime 	279
scalar RSUExampleScenario.node[4].veinsmobility 	minSpeed 	0.25465579470969
scalar RSUExampleScenario.node[4].veinsmobility 	maxSpeed 	13.999847032966
scalar RSUExampleScenario.node[4].veinsmobility 	totalDistance 	3409.5213317173
scalar RSUExampleScenario.node[4].veinsmobility 	totalCO2Emission 	695.4265688923
scalar RSUExampleScenario.node[5].veinsmobility 	startTime 	15.1
scalar RSUExampleScenario.node[5].veinsmobility 	totalTime 	266.9
scalar RSUExampleScenario.node[5].veinsmobility 	stopTime 	282.1
scalar RSUExampleScenario.node[5].veinsmobility 	minSpeed 	0.25997563775396
scalar RSUExampleScenario.node[5].veinsmobility 	maxSpeed 	13.999996496027
scalar RSUExampleScenario.node[5].veinsmobility 	totalDistance 	3413.5780400815
scalar RSUExampleScenario.node[5].veinsmobility 	totalCO2Emission 	696.29134053385
scalar RSUExampleScenario.node[6].veinsmobility 	startTime 	18.1
scalar RSUExampleScenario.node[6].veinsmobility 	totalTime 	267
scalar RSUExampleScenario.node[6].veinsmobility 	stopTime 	285.2
scalar RSUExampleScenario.node[6].veinsmobility 	minSpeed 	0.25726335372636
scalar RSUExampleScenario.node[6].veinsmobility 	maxSpeed 	13.99997047558
scalar RSUExampleScenario.node[6].veinsmobility 	totalDistance 	3409.4271902512
scalar RSUExampleScenario.node[6].veinsmobility 	totalCO2Emission 	691.22609535353
scalar RSUExampleScenario.node[7].veinsmobility 	startTime 	21.1
scalar RSUExampleScenario.node[7].veinsmobility 	totalTime 	267
scalar RSUExampleScenario.node[7].veinsmobility 	stopTime 	288.2
scalar RSUExampleScenario.node[7].veinsmobility 	minSpeed 	0.25680023065419
scalar RSUExampleScenario.node[7].veinsmobility 	maxSpeed 	13.999894748717
scalar RSUExampleScenario.node[7].veinsmobility 	totalDistance 	3413.6411699937
scalar RSUExampleScenario.node[7].veinsmobility 	totalCO2Emission 	691.81305894546
scalar RSUExampleScenario.node[8].veinsmobility 	startTime 	24.1
scalar RSUExampleScenario.node[8].veinsmobility 	totalTime 	267.1
scalar RSUExampleScenario.node[8].veinsmobility 	stopTime 	291.3
scalar RSUExampleScenario.node[8].veinsmobility 	minSpeed 	0.25962980618468
scalar RSUExampleScenario.node[8].veinsmobility 	maxSpeed 	13.999944388997
scalar RSUExampleScenario.node[8].veinsmobility 	totalDistance 	3409.3577144233
scalar RSUExampleScenario.node[8].veinsmobility 	totalCO2Emission 	689.55009640091
scalar RSUExampleScenario.node[9].veinsmobility 	startTime 	27.1
scalar RSUExampleScenario.node[9].veinsmobility 	totalTime 	267.1
scalar RSUExampleScenario.node[9].veinsmobility 	stopTime 	294.3
scalar RSUExampleScenario.node[9].veinsmobility 	minSpeed 	0.24999905443704
scalar RSUExampleScenario.node[9].veinsmobility 	maxSpeed 	13.999856446369
scalar RSUExampleScenario.node[9].veinsmobility 	totalDistance 	3413.8256372374
scalar RSUExampleScenario.node[9].veinsmobility 	totalCO2Emission 	693.02238395192
scalar RSUExampleScenario.node[10].veinsmobility 	startTime 	30.1
scalar RSUExampleScenario.node[10].veinsmobility 	totalTime 	267.2
scalar RSUExampleScenario.node[10].veinsmobility 	stopTime 	297.4
scalar RSUExampleScenario.node[10].veinsmobility 	minSpeed 	0.25859249921702
scalar RSUExampleScenario.node[10].veinsmobility 	maxSpeed 	13.999983591817
scalar RSUExampleScenario.node[10].veinsmobility 	totalDistance 	3409.1666673845
scalar RSUExampleScenario.node[10].veinsmobility 	totalCO2Emission 	694.78952642097
scalar RSUExampleScenario.node[11].veinsmobility 	startTime 	33.1
scalar RSUExampleScenario.node[11].veinsmobility 	totalTime 	267.2
scalar RSUExampleScenario.node[11].veinsmobility 	stopTime 	300.4
scalar RSUExampleScenario.node[11].veinsmobility 	minSpeed 	0.25238352092821
scalar RSUExampleScenario.node[11].veinsmobility 	maxSpeed 	13.999854327035
scalar RSUExampleScenario.node[11].veinsmobility 	totalDistance 	3413.732950558
scalar RSUExampleScenario.node[11].veinsmobility 	totalCO2Emission 	692.37507462032
scalar RSUExampleScenario.node[12].veinsmobility 	startTime 	36.1
scalar RSUExampleScenario.node[12].veinsmobility 	totalTime 	267.2
scalar RSUExampleScenario.node[12].veinsmobility 	stopTime 	303.4
scalar RSUExampleScenario.node[12].veinsmobility 	minSpeed 	0.2482796563718
scalar RSUExampleScenario.node[12].veinsmobility 	maxSpeed 	13.999999160366
scalar RSUExampleScenario.node[12].veinsmobility 	totalDistance 	3409.3087154902
scalar RSUExampleScenario.node[12].veinsmobility 	totalCO2Emission 	690.55895646645
scalar RSUExampleScenario.node[13].veinsmobility 	startTime 	39.1
scalar RSUExampleScenario.node[13].veinsmobility 	totalTime 	267.2
scalar RSUExampleScenario.node[13].veinsmobility 	stopTime 	306.4
scalar RSUExampleScenario.node[13].veinsmobility 	minSpeed 	0.25392634605546
scalar RSUExampleScenario.node[13].veinsmobility 	maxSpeed 	13.999948400958
scalar RSUExampleScenario.node[13].veinsmobility 	totalDistance 	3409.6548253711
scalar RSUExampleScenario.node[13].veinsmobility 	totalCO2Emission 	693.77091092081
scalar RSUExampleScenario.node[14].veinsmobility 	startTime 	42.1
scalar RSUExampleScenario.node[14].veinsmobility 	totalTime 	267.2
scalar RSUExampleScenario.node[14].veinsmobility 	stopTime 	309.4
scalar RSUExampleScenario.node[14].veinsmobility 	minSpeed 	0.25518856612244
scalar RSUExampleScenario.node[14].veinsmobility 	maxSpeed 	13.9998920022
scalar RSUExampleScenario.node[14].veinsmobility 	totalDistance 	3413.6240998388
scalar RSUExampleScenario.node[14].veinsmobility 	totalCO2Emission 	693.52205272093
scalar RSUExampleScenario.node[15].veinsmobility 	startTime 	45.1
scalar RSUExampleScenario.node[15].veinsmobility 	totalTime 	267.2
scalar RSUExampleScenario.node[15].veinsmobility 	stopTime 	312.4
scalar RSUExampleScenario.node[15].veinsmobility 	minSpeed 	0.24913333183806
scalar RSUExampleScenario.node[15].veinsmobility 	maxSpeed 	13.999919945179
scalar RSUExampleScenario.node[15].veinsmobility 	totalDistance 	3409.9611483915
scalar RSUExampleScenario.node[15].veinsmobility 	totalCO2Emission 	693.33349878928
scalar RSUExampleScenario.node[16].veinsmobility 	startTime 	48.1
scalar RSUExampleScenario.node[16].veinsmobility 	totalTime 	267.2
scalar RSUExampleScenario.node[16].veinsmobility 	stopTime 	315.4
scalar RSUExampleScenario.node[16].veinsmobility 	minSpeed 	0.25687459886004
scalar RSUExampleScenario.node[16].veinsmobility 	maxSpeed 	13.999997670637
scalar RSUExampleScenario.node[16].veinsmobility 	totalDistance 	3414.0254299176
scalar RSUExampleScenario.node[16].veinsmobility 	totalCO2Emission 	691.76689270228
scalar RSUExampleScenario.node[17].veinsmobility 	startTime 	51.1
scalar RSUExampleScenario.node[17].veinsmobility 	totalTime 	267.2
scalar RSUExampleScenario.node[17].veinsmobility 	stopTime 	318.4
scalar RSUExampleScenario.node[17].veinsmobility 	minSpeed 	0.2587782858382
scalar RSUExampleScenario.node[17].veinsmobility 	maxSpeed 	13.999966247112
scalar RSUExampleScenario.node[17].veinsmobility 	totalDistance 	3409.5021927757
scalar RSUExampleScenario.node[17].veinsmobility 	totalCO2Emission 	693.37728847255
scalar RSUExampleScenario.node[18].veinsmobility 	startTime 	54.1
scalar RSUExampleScenario.node[18].veinsmobility 	totalTime 	267.2
scalar RSUExampleScenario.node[18].veinsmobility 	stopTime 	321.4
scalar RSUExampleScenario.node[18].veinsmobility 	minSpeed 	0.25884679418663
scalar RSUExampleScenario.node[18].veinsmobility 	maxSpeed 	13.999981911883
scalar RSUExampleScenario.node[18].veinsmobility 	totalDistance 	3413.751347926
scalar RSUExampleScenario.node[18].veinsmobility 	totalCO2Emission 	690.34737781742
scalar RSUExampleScenario.node[19].veinsmobility 	startTime 	57.1
scalar RSUExampleScenario.node[19].veinsmobility 	totalTime 	267.3
scalar RSUExampleScenario.node[19].veinsmobility 	stopTime 	324.5
scalar RSUExampleScenario.node[19].veinsmobility 	minSpeed 	0.25023816552106
scalar RSUExampleScenario.node[19].veinsmobility 	maxSpeed 	13.999988497894
scalar RSUExampleScenario.node[19].veinsmobility 	totalDistance 	3410.1153504533
scalar RSUExampleScenario.node[19].veinsmobility 	totalCO2Emission 	695.28048023957
scalar RSUExampleScenario.node[20].veinsmobility 	startTime 	60.1
scalar RSUExampleScenario.node[20].veinsmobility 	totalTime 	267.3
scalar RSUExampleScenario.node[20].veinsmobility 	stopTime 	327.5
scalar RSUExampleScenario.node[20].veinsmobility 	minSpeed 	0.24724047104269
scalar RSUExampleScenario.node[20].veinsmobility 	maxSpeed 	13.999898045415
scalar RSUExampleScenario.node[20].veinsmobility 	totalDistance 	3413.6093290356
scalar RSUExampleScenario.node[20].veinsmobility 	totalCO2Emission 	691.58682963621
scalar RSUExampleScenario.node[21].veinsmobility 	startTime 	63.1
scalar RSUExampleScenario.node[21].veinsmobility 	totalTime 	267.4
scalar RSUExampleScenario.node[21].veinsmobility 	stopTime 	330.6
scalar RSUExampleScenario.node[21].veinsmobility 	minSpeed 	0.2515226305523
scalar RSUExampleScenario.node[21].veinsmobility 	maxSpeed 	13.999973764499
scalar RSUExampleScenario.node[21].veinsmobility 	totalDistance 	3409.9591881496
scalar RSUExampleScenario.node[21].veinsmobility 	totalCO2Emission 	693.19809632988
scalar RSUExampleScenario.node[22].veinsmobility 	startTime 	66.1
scalar RSUExampleScenario.node[22].veinsmobility 	totalTime 	267.5
scalar RSUExampleScenario.node[22].veinsmobility 	stopTime 	333.7
scalar RSUExampleScenario.node[22].veinsmobility 	minSpeed 	0.25106088870205
scalar RSUExampleScenario.node[22].veinsmobility 	maxSpeed 	13.999970863585
scalar RSUExampleScenario.node[22].veinsmobility 	totalDistance 	3413.7995217475
scalar RSUExampleScenario.node[22].veinsmobility 	totalCO2Emission 	687.85478569885
scalar RSUExampleScenario.node[23].veinsmobility 	startTime 	69.1
scalar RSUExampleScenario.node[23].veinsmobility 	totalTime 	267.6
scalar RSUExampleScenario.node[23].veinsmobility 	stopTime 	336.8
scalar RSUExampleScenario.node[23].veinsmobility 	minSpeed 	0.25103407401685
scalar RSUExampleScenario.node[23].veinsmobility 	maxSpeed 	13.999959064489
scalar RSUExampleScenario.node[23].veinsmobility 	totalDistance 	3409.3886199419
scalar RSUExampleScenario.node[23].veinsmobility 	totalCO2Emission 	688.75196134191
scalar RSUExampleScenario.node[24].veinsmobility 	startTime 	72.1
scalar RSUExampleScenario.node[24].veinsmobility 	totalTime 	267.8
scalar RSUExampleScenario.node[24].veinsmobility 	stopTime 	340
scalar RSUExampleScenario.node[24].veinsmobility 	minSpeed 	0.24917620349792
scalar RSUExampleScenario.node[24].veinsmobility 	maxSpeed 	13.999879818459
scalar RSUExampleScenario.node[24].veinsmobility 	totalDistance 	3414.3135988636
scalar RSUExampleScenario.node[24].veinsmobility 	totalCO2Emission 	692.3251662441
scalar RSUExampleScenario.node[25].veinsmobility 	startTime 	75.1
scalar RSUExampleScenario.node[25].veinsmobility 	totalTime 	268
scalar RSUExampleScenario.node[25].veinsmobility 	stopTime 	343.2
scalar RSUExampleScenario.node[25].veinsmobility 	minSpeed 	0.25866083452944
scalar RSUExampleScenario.node[25].veinsmobility 	maxSpeed 	13.999971869602
scalar RSUExampleScenario.node[25].veinsmobility 	totalDistance 	3410.1074944597
scalar RSUExampleScenario.node[25].veinsmobility 	totalCO2Emission 	690.43823796686
scalar RSUExampleScenario.node[26].veinsmobility 	startTime 	78.1
scalar RSUExampleScenario.node[26].veinsmobility 	totalTime 	268.2
scalar RSUExampleScenario.node[26].veinsmobility 	stopTime 	346.4
scalar RSUExampleScenario.node[26].veinsmobility 	minSpeed 	0.24967524442403
scalar RSUExampleScenario.node[26].veinsmobility 	maxSpeed 	13.999939361364
scalar RSUExampleScenario.node[26].veinsmobility 	totalDistance 	3409.6699952122
scalar RSUExampleScenario.node[26].veinsmobility 	totalCO2Emission 	695.86052324456
scalar RSUExampleScenario.node[27].veinsmobility 	startTime 	81.1
scalar RSUExampleScenario.node[27].veinsmobility 	totalTime 	268.5
scalar RSUExampleScenario.node[27].veinsmobility 	stopTime 	349.7
scalar RSUExampleScenario.node[27].veinsmobility 	minSpeed 	0.25477655703621
scalar RSUExampleScenario.node[27].veinsmobility 	maxSpeed 	13.999934533529
scalar RSUExampleScenario.node[27].veinsmobility 	totalDistance 	3414.1046114024
scalar RSUExampleScenario.node[27].veinsmobility 	totalCO2Emission 	688.75330025765
scalar RSUExampleScenario.node[28].veinsmobility 	startTime 	84.1
scalar RSUExampleScenario.node[28].veinsmobility 	totalTime 	268.8
scalar RSUExampleScenario.node[28].veinsmobility 	stopTime 	353
scalar RSUExampleScenario.node[28].veinsmobility 	minSpeed 	0.2550627820408
scalar RSUExampleScenario.node[28].veinsmobility 	maxSpeed 	13.999795588411
scalar RSUExampleScenario.node[28].veinsmobility 	totalDistance 	3409.9964335025
scalar RSUExampleScenario.node[28].veinsmobility 	totalCO2Emission 	690.35093235216
scalar RSUExampleScenario.node[29].veinsmobility 	startTime 	87.1
scalar RSUExampleScenario.node[29].veinsmobility 	totalTime 	269.1
scalar RSUExampleScenario.node[29].veinsmobility 	stopTime 	356.3
scalar RSUExampleScenario.node[29].veinsmobility 	minSpeed 	0.25543466916215
scalar RSUExampleScenario.node[29].veinsmobility 	maxSpeed 	13.999987346893
scalar RSUExampleScenario.node[29].veinsmobility 	totalDistance 	3413.677161793
scalar RSUExampleScenario.node[29].veinsmobility 	totalCO2Emission 	689.06403357487
scalar RSUExampleScenario.node[30].veinsmobility 	startTime 	90.1
scalar RSUExampleScenario.node[30].veinsmobility 	totalTime 	269.5
scalar RSUExampleScenario.node[30].veinsmobility 	stopTime 	359.7
scalar RSUExampleScenario.node[30].veinsmobility 	minSpeed 	0.25195117744431
scalar RSUExampleScenario.node[30].veinsmobility 	maxSpeed 	13.999924068919
scalar RSUExampleScenario.node[30].veinsmobility 	totalDistance 	3409.5463736142
scalar RSUExampleScenario.node[30].veinsmobility 	totalCO2Emission 	695.19317184433
scalar RSUExampleScenario.node[31].veinsmobility 	startTime 	93.1
scalar RSUExampleScenario.node[31].veinsmobility 	totalTime 	269.9
scalar RSUExampleScenario.node[31].veinsmobility 	stopTime 	363.1
scalar RSUExampleScenario.node[31].veinsmobility 	minSpeed 	0.24931949513522
scalar RSUExampleScenario.node[31].veinsmobility 	maxSpeed 	13.999938178642
scalar RSUExampleScenario.node[31].veinsmobility 	totalDistance 	3413.6623987846
scalar RSUExampleScenario.node[31].veinsmobility 	totalCO2Emission 	690.18517131385
scalar RSUExampleScenario.node[32].veinsmobility 	startTime 	96.1
scalar RSUExampleScenario.node[32].veinsmobility 	totalTime 	270.5
scalar RSUExampleScenario.node[32].veinsmobility 	stopTime 	366.7
scalar RSUExampleScenario.node[32].veinsmobility 	minSpeed 	0.25672550528613
scalar RSUExampleScenario.node[32].veinsmobility 	maxSpeed 	13.999868576415
scalar RSUExampleScenario.node[32].veinsmobility 	totalDistance 	3410.2348867724
scalar RSUExampleScenario.node[32].veinsmobility 	totalCO2Emission 	694.90240424676
scalar RSUExampleScenario.node[33].veinsmobility 	startTime 	99.1
scalar RSUExampleScenario.node[33].veinsmobility 	totalTime 	271
scalar RSUExampleScenario.node[33].veinsmobility 	stopTime 	370.2
scalar RSUExampleScenario.node[33].veinsmobility 	minSpeed 	0.25163001707243
scalar RSUExampleScenario.node[33].veinsmobility 	maxSpeed 	13.999967547425
scalar RSUExampleScenario.node[33].veinsmobility 	totalDistance 	3413.6240588192
scalar RSUExampleScenario.node[33].veinsmobility 	totalCO2Emission 	693.17192983921
scalar RSUExampleScenario.node[34].veinsmobility 	startTime 	102.1
scalar RSUExampleScenario.node[34].veinsmobility 	totalTime 	271.6
scalar RSUExampleScenario.node[34].veinsmobility 	stopTime 	373.8
scalar RSUExampleScenario.node[34].veinsmobility 	minSpeed 	0.25969492560253
scalar RSUExampleScenario.node[34].veinsmobility 	maxSpeed 	13.999886247318
scalar RSUExampleScenario.node[34].veinsmobility 	totalDistance 	3409.9991760113
scalar RSUExampleScenario.node[34].veinsmobility 	totalCO2Emission 	694.43539316601
scalar RSUExampleScenario.node[35].veinsmobility 	startTime 	105.1
scalar RSUExampleScenario.node[35].veinsmobility 	totalTime 	272.2
scalar RSUExampleScenario.node[35].veinsmobility 	stopTime 	377.4
scalar RSUExampleScenario.node[35].veinsmobility 	minSpeed 	0.25962970546796
scalar RSUExampleScenario.node[35].veinsmobility 	maxSpeed 	13.999908944583
scalar RSUExampleScenario.node[35].veinsmobility 	totalDistance 	3413.9496761259
scalar RSUExampleScenario.node[35].veinsmobility 	totalCO2Emission 	694.90529387469
scalar RSUExampleScenario.node[36].veinsmobility 	startTime 	108.1
scalar RSUExampleScenario.node[36].veinsmobility 	totalTime 	272.8
scalar RSUExampleScenario.node[36].veinsmobility 	stopTime 	381
scalar RSUExampleScenario.node[36].veinsmobility 	minSpeed 	0.25407068825816
scalar RSUExampleScenario.node[36].veinsmobility 	maxSpeed 	13.999992588127
scalar RSUExampleScenario.node[36].veinsmobility 	totalDistance 	3409.4866452522
scalar RSUExampleScenario.node[36].veinsmobility 	totalCO2Emission 	697.64366440084
scalar RSUExampleScenario.node[37].veinsmobility 	startTime 	111.1
scalar RSUExampleScenario.node[37].veinsmobility 	totalTime 	273.5
scalar RSUExampleScenario.node[37].veinsmobility 	stopTime 	384.7
scalar RSUExampleScenario.node[37].veinsmobility 	minSpeed 	0.2475272695832
scalar RSUExampleScenario.node[37].veinsmobility 	maxSpeed 	13.999866966764
scalar RSUExampleScenario.node[37].veinsmobility 	totalDistance 	3414.0567109406
scalar RSUExampleScenario.node[37].veinsmobility 	totalCO2Emission 	693.74222019734
scalar RSUExampleScenario.node[38].veinsmobility 	startTime 	114.1
scalar RSUExampleScenario.node[38].veinsmobility 	totalTime 	274.1
scalar RSUExampleScenario.node[38].veinsmobility 	stopTime 	388.3
scalar RSUExampleScenario.node[38].veinsmobility 	minSpeed 	0.25722900696239
scalar RSUExampleScenario.node[38].veinsmobility 	maxSpeed 	13.999985275927
scalar RSUExampleScenario.node[38].veinsmobility 	totalDistance 	3409.5013197081
scalar RSUExampleScenario.node[38].veinsmobility 	totalCO2Emission 	695.77402444494
scalar RSUExampleScenario.node[39].veinsmobility 	startTime 	117.1
scalar RSUExampleScenario.node[39].veinsmobility 	totalTime 	274.8
scalar RSUExampleScenario.node[39].veinsmobility 	stopTime 	392
scalar RSUExampleScenario.node[39].veinsmobility 	minSpeed 	0.2473552838671
scalar RSUExampleScenario.node[39].veinsmobility 	maxSpeed 	13.999979482696
scalar RSUExampleScenario.node[39].veinsmobility 	totalDistance 	3414.1056994457
scalar RSUExampleScenario.node[39].veinsmobility 	totalCO2Emission 	694.93938168831
scalar RSUExampleScenario.node[40].veinsmobility 	startTime 	120.1
scalar RSUExampleScenario.node[40].veinsmobility 	totalTime 	275.5
scalar RSUExampleScenario.node[40].veinsmobility 	stopTime 	395.7
scalar RSUExampleScenario.node[40].veinsmobility 	minSpeed 	0.25137810047925
scalar RSUExampleScenario.node[40].veinsmobility 	maxSpeed 	13.999958982554
scalar RSUExampleScenario.node[40].veinsmobility 	totalDistance 	3409.8740267638
scalar RSUExampleScenario.node[40].veinsmobility 	totalCO2Emission 	699.65431468899
scalar RSUExampleScenario.node[41].veinsmobility 	startTime 	123.1
scalar RSUExampleScenario.node[41].veinsmobility 	totalTime 	276.2
scalar RSUExampleScenario.node[41].veinsmobility 	stopTime 	399.4
scalar RSUExampleScenario.node[41].veinsmobility 	minSpeed 	0.25818299611402
scalar RSUExampleScenario.node[41].veinsmobility 	maxSpeed 	13.999942257495
scalar RSUExampleScenario.node[41].veinsmobility 	totalDistance 	3413.9433009503
scalar RSUExampleScenario.node[41].veinsmobility 	totalCO2Emission 	702.30245394544
scalar RSUExampleScenario.node[42].veinsmobility 	startTime 	126.1
scalar RSUExampleScenario.node[42].veinsmobility 	totalTime 	276.9
scalar RSUExampleScenario.node[42].veinsmobility 	stopTime 	403.1
scalar RSUExampleScenario.node[42].veinsmobility 	minSpeed 	0.25541726959962
scalar RSUExampleScenario.node[42].veinsmobility 	maxSpeed 	13.999998459693
scalar RSUExampleScenario.node[42].veinsmobility 	totalDistance 	3409.8124884241
scalar RSUExampleScenario.node[42].veinsmobility 	totalCO2Emission 	697.92362283353
scalar RSUExampleScenario.node[43].veinsmobility 	startTime 	129.1
scalar RSUExampleScenario.node[43].veinsmobility 	totalTime 	277.6
scalar RSUExampleScenario.node[43].veinsmobility 	stopTime 	406.8
scalar RSUExampleScenario.node[43].veinsmobility 	minSpeed 	0.24804923136369
scalar RSUExampleScenario.node[43].veinsmobility 	maxSpeed 	13.99999290128
scalar RSUExampleScenario.node[43].veinsmobility 	totalDistance 	3413.752889303
scalar RSUExampleScenario.node[43].veinsmobility 	totalCO2Emission 	698.38641601149
scalar RSUExampleScenario.node[44].veinsmobility 	startTime 	132.1
scalar RSUExampleScenario.node[44].veinsmobility 	totalTime 	278.3
scalar RSUExampleScenario.node[44].veinsmobility 	stopTime 	410.5
scalar RSUExampleScenario.node[44].veinsmobility 	minSpeed 	0.25954986811895
scalar RSUExampleScenario.node[44].veinsmobility 	maxSpeed 	13.99986562226
scalar RSUExampleScenario.node[44].veinsmobility 	totalDistance 	3409.7826082391
scalar RSUExampleScenario.node[44].veinsmobility 	totalCO2Emission 	699.8563854999
scalar RSUExampleScenario.node[45].veinsmobility 	startTime 	135.1
scalar RSUExampleScenario.node[45].veinsmobility 	totalTime 	279
scalar RSUExampleScenario.node[45].veinsmobility 	stopTime 	414.2
scalar RSUExampleScenario.node[45].veinsmobility 	minSpeed 	0.25597204482253
scalar RSUExampleScenario.node[45].veinsmobility 	maxSpeed 	13.999905544005
scalar RSUExampleScenario.node[45].veinsmobility 	totalDistance 	3413.9938468978
scalar RSUExampleScenario.node[45].veinsmobility 	totalCO2Emission 	698.79156409641
scalar RSUExampleScenario.node[46].veinsmobility 	startTime 	138.1
scalar RSUExampleScenario.node[46].veinsmobility 	totalTime 	279.7
scalar RSUExampleScenario.node[46].veinsmobility 	stopTime 	417.9
scalar RSUExampleScenario.node[46].veinsmobility 	minSpeed 	0.25658760072943
scalar RSUExampleScenario.node[46].veinsmobility 	maxSpeed 	13.999941312408
scalar RSUExampleScenario.node[46].veinsmobility 	totalDistance 	3409.9079335346
scalar RSUExampleScenario.node[46].veinsmobility 	totalCO2Emission 	700.98114032771
scalar RSUExampleScenario.node[47].veinsmobility 	startTime 	141.1
scalar RSUExampleScenario.node[47].veinsmobility 	totalTime 	280.3
scalar RSUExampleScenario.node[47].veinsmobility 	stopTime 	421.5
scalar RSUExampleScenario.node[47].veinsmobility 	minSpeed 	0.25691281786771
scalar RSUExampleScenario.node[47].veinsmobility 	maxSpeed 	13.999916799276
scalar RSUExampleScenario.node[47].veinsmobility 	totalDistance 	3413.8469204162
scalar RSUExampleScenario.node[47].veinsmobility 	totalCO2Emission 	702.72674228844
scalar RSUExampleScenario.node[48].veinsmobility 	startTime 	144.1
scalar RSUExampleScenario.node[48].veinsmobility 	totalTime 	281
scalar RSUExampleScenario.node[48].veinsmobility 	stopTime 	425.2
scalar RSUExampleScenario.node[48].veinsmobility 	minSpeed 	0.25147746236064
scalar RSUExampleScenario.node[48].veinsmobility 	maxSpeed 	13.999970105221
scalar RSUExampleScenario.node[48].veinsmobility 	totalDistance 	3409.8919495424
scalar RSUExampleScenario.node[48].veinsmobility 	totalCO2Emission 	698.75263408206
scalar RSUExampleScenario.node[49].veinsmobility 	startTime 	147.1
scalar RSUExampleScenario.node[49].veinsmobility 	totalTime 	281.7
scalar RSUExampleScenario.node[49].veinsmobility 	stopTime 	428.9
scalar RSUExampleScenario.node[49].veinsmobility 	minSpeed 	0.24970783333853
scalar RSUExampleScenario.node[49].veinsmobility 	maxSpeed 	13.999944294197
scalar RSUExampleScenario.node[49].veinsmobility 	totalDistance 	3413.7080159491
scalar RSUExampleScenario.node[49].veinsmobility 	totalCO2Emission 	701.60029486706
scalar RSUExampleScenario.node[50].veinsmobility 	startTime 	150.1
scalar RSUExampleScenario.node[50].veinsmobility 	totalTime 	282.4
scalar RSUExampleScenario.node[50].veinsmobility 	stopTime 	432.6
scalar RSUExampleScenario.node[50].veinsmobility 	minSpeed 	0.25552647591266
scalar RSUExampleScenario.node[50].veinsmobility 	maxSpeed 	13.999887135047
scalar RSUExampleScenario.node[50].veinsmobility 	totalDistance 	3409.8713750279
scalar RSUExampleScenario.node[50].veinsmobility 	totalCO2Emission 	705.40822580689
scalar RSUExampleScenario.node[51].veinsmobility 	startTime 	153.1
scalar RSUExampleScenario.node[51].veinsmobility 	totalTime 	283.1
scalar RSUExampleScenario.node[51].veinsmobility 	stopTime 	436.3
scalar RSUExampleScenario.node[51].veinsmobility 	minSpeed 	0.24813911842182
scalar RSUExampleScenario.node[51].veinsmobility 	maxSpeed 	13.999950069268
scalar RSUExampleScenario.node[51].veinsmobility 	totalDistance 	3413.95714933
scalar RSUExampleScenario.node[51].veinsmobility 	totalCO2Emission 	702.62439948438
scalar RSUExampleScenario.node[52].veinsmobility 	startTime 	156.1
scalar RSUExampleScenario.node[52].veinsmobility 	totalTime 	283.8
scalar RSUExampleScenario.node[52].veinsmobility 	stopTime 	440
scalar RSUExampleScenario.node[52].veinsmobility 	minSpeed 	0.25091487152362
scalar RSUExampleScenario.node[52].veinsmobility 	maxSpeed 	13.999984081886
scalar RSUExampleScenario.node[52].veinsmobility 	totalDistance 	3409.5385063993
scalar RSUExampleScenario.node[52].veinsmobility 	totalCO2Emission 	710.73215054257
scalar RSUExampleScenario.node[53].veinsmobility 	startTime 	159.1
scalar RSUExampleScenario.node[53].veinsmobility 	totalTime 	284.4
scalar RSUExampleScenario.node[53].veinsmobility 	stopTime 	443.6
scalar RSUExampleScenario.node[53].veinsmobility 	minSpeed 	0.25440644684224
scalar RSUExampleScenario.node[53].veinsmobility 	maxSpeed 	13.999962141956
scalar RSUExampleScenario.node[53].veinsmobility 	totalDistance 	3413.762699099
scalar RSUExampleScenario.node[53].veinsmobility 	totalCO2Emission 	705.64417048099
scalar RSUExampleScenario.node[54].veinsmobility 	startTime 	162.1
scalar RSUExampleScenario.node[54].veinsmobility 	totalTime 	285.1
scalar RSUExampleScenario.node[54].veinsmobility 	stopTime 	447.3
scalar RSUExampleScenario.node[54].veinsmobility 	minSpeed 	0.25108694304037
scalar RSUExampleScenario.node[54].veinsmobility 	maxSpeed 	13.999972581626
scalar RSUExampleScenario.node[54].veinsmobility 	totalDistance 	3409.7250489257
scalar RSUExampleScenario.node[54].veinsmobility 	totalCO2Emission 	704.91703085002
scalar RSUExampleScenario.node[55].veinsmobility 	startTime 	165.1
scalar RSUExampleScenario.node[55].veinsmobility 	totalTime 	285.7
scalar RSUExampleScenario.node[55].veinsmobility 	stopTime 	450.9
scalar RSUExampleScenario.node[55].veinsmobility 	minSpeed 	0.2484880853123
scalar RSUExampleScenario.node[55].veinsmobility 	maxSpeed 	13.999756642566
scalar RSUExampleScenario.node[55].veinsmobility 	totalDistance 	3413.7700964876
scalar RSUExampleScenario.node[55].veinsmobility 	totalCO2Emission 	707.49770195332
scalar RSUExampleScenario.node[56].veinsmobility 	startTime 	168.1
scalar RSUExampleScenario.node[56].veinsmobility 	totalTime 	286.3
scalar RSUExampleScenario.node[56].veinsmobility 	stopTime 	454.5
scalar RSUExampleScenario.node[56].veinsmobility 	minSpeed 	0.254691927657
scalar RSUExampleScenario.node[56].veinsmobility 	maxSpeed 	13.999942713573
scalar RSUExampleScenario.node[56].veinsmobility 	totalDistance 	3409.7091333832
scalar RSUExampleScenario.node[56].veinsmobility 	totalCO2Emission 	707.83840515838
scalar RSUExampleScenario.node[57].veinsmobility 	startTime 	171.1
scalar RSUExampleScenario.node[57].veinsmobility 	totalTime 	286.9
scalar RSUExampleScenario.node[57].veinsmobility 	stopTime 	458.1
scalar RSUExampleScenario.node[57].veinsmobility 	minSpeed 	0.24919041088689
scalar RSUExampleScenario.node[57].veinsmobility 	maxSpeed 	13.999934622881
scalar RSUExampleScenario.node[57].veinsmobility 	totalDistance 	3409.5693277859
scalar RSUExampleScenario.node[57].veinsmobility 	totalCO2Emission 	712.75639146061
scalar RSUExampleScenario.node[58].veinsmobility 	startTime 	174.1
scalar RSUExampleScenario.node[58].veinsmobility 	totalTime 	287.5
scalar RSUExampleScenario.node[58].veinsmobility 	stopTime 	461.7
scalar RSUExampleScenario.node[58].veinsmobility 	minSpeed 	0.25140934947855
scalar RSUExampleScenario.node[58].veinsmobility 	maxSpeed 	13.999999829954
scalar RSUExampleScenario.node[58].veinsmobility 	totalDistance 	3413.5870638633
scalar RSUExampleScenario.node[58].veinsmobility 	totalCO2Emission 	710.41423118846
scalar RSUExampleScenario.node[59].veinsmobility 	startTime 	177.1
scalar RSUExampleScenario.node[59].veinsmobility 	totalTime 	288.2
scalar RSUExampleScenario.node[59].veinsmobility 	stopTime 	465.4
scalar RSUExampleScenario.node[59].veinsmobility 	minSpeed 	0.25814389189496
scalar RSUExampleScenario.node[59].veinsmobility 	maxSpeed 	13.999989539869
scalar RSUExampleScenario.node[59].veinsmobility 	totalDistance 	3409.6868866462
scalar RSUExampleScenario.node[59].veinsmobility 	totalCO2Emission 	709.32752502834
scalar RSUExampleScenario.node[60].veinsmobility 	startTime 	180.1
scalar RSUExampleScenario.node[60].veinsmobility 	totalTime 	289
scalar RSUExampleScenario.node[60].veinsmobility 	stopTime 	469.2
scalar RSUExampleScenario.node[60].veinsmobility 	minSpeed 	0.24961092705326
scalar RSUExampleScenario.node[60].veinsmobility 	maxSpeed 	13.999855175931
scalar RSUExampleScenario.node[60].veinsmobility 	totalDistance 	3414.0084106868
scalar RSUExampleScenario.node[60].veinsmobility 	totalCO2Emission 	707.14449385147
scalar RSUExampleScenario.node[61].veinsmobility 	startTime 	183.1
scalar RSUExampleScenario.node[61].veinsmobility 	totalTime 	289.8
scalar RSUExampleScenario.node[61].veinsmobility 	stopTime 	473
scalar RSUExampleScenario.node[61].veinsmobility 	minSpeed 	0.24836856257776
scalar RSUExampleScenario.node[61].veinsmobility 	maxSpeed 	13.999990414008
scalar RSUExampleScenario.node[61].veinsmobility 	totalDistance 	3409.4417743231
scalar RSUExampleScenario.node[61].veinsmobility 	totalCO2Emission 	711.39610141692
scalar RSUExampleScenario.node[62].veinsmobility 	startTime 	186.1
scalar RSUExampleScenario.node[62].veinsmobility 	totalTime 	290.5
scalar RSUExampleScenario.node[62].veinsmobility 	stopTime 	476.7
scalar RSUExampleScenario.node[62].veinsmobility 	minSpeed 	0.25199164447631
scalar RSUExampleScenario.node[62].veinsmobility 	maxSpeed 	13.999727052646
scalar RSUExampleScenario.node[62].veinsmobility 	totalDistance 	3409.794630771
scalar RSUExampleScenario.node[62].veinsmobility 	totalCO2Emission 	709.81459200343
scalar RSUExampleScenario.node[63].veinsmobility 	startTime 	189.1
scalar RSUExampleScenario.node[63].veinsmobility 	totalTime 	291.2
scalar RSUExampleScenario.node[63].veinsmobility 	stopTime 	480.4
scalar RSUExampleScenario.node[63].veinsmobility 	minSpeed 	0.24866668667132
scalar RSUExampleScenario.node[63].veinsmobility 	maxSpeed 	13.999943908916
scalar RSUExampleScenario.node[63].veinsmobility 	totalDistance 	3414.0693050406
scalar RSUExampleScenario.node[63].veinsmobility 	totalCO2Emission 	714.03107438917
scalar RSUExampleScenario.node[64].veinsmobility 	startTime 	192.1
scalar RSUExampleScenario.node[64].veinsmobility 	totalTime 	292
scalar RSUExampleScenario.node[64].veinsmobility 	stopTime 	484.2
scalar RSUExampleScenario.node[64].veinsmobility 	minSpeed 	0.25122067720164
scalar RSUExampleScenario.node[64].veinsmobility 	maxSpeed 	13.999943874653
scalar RSUExampleScenario.node[64].veinsmobility 	totalDistance 	3410.1485117243
scalar RSUExampleScenario.node[64].veinsmobility 	totalCO2Emission 	712.68264609969
scalar RSUExampleScenario.node[65].veinsmobility 	startTime 	195.1
scalar RSUExampleScenario.node[65].veinsmobility 	totalTime 	292.7
scalar RSUExampleScenario.node[65].veinsmobility 	stopTime 	487.9
scalar RSUExampleScenario.node[65].veinsmobility 	minSpeed 	0.25379821852664
scalar RSUExampleScenario.node[65].veinsmobility 	maxSpeed 	13.999959714585
scalar RSUExampleScenario.node[65].veinsmobility 	totalDistance 	3414.1138772463
scalar RSUExampleScenario.node[65].veinsmobility 	totalCO2Emission 	711.54005375025
scalar RSUExampleScenario.node[66].veinsmobility 	startTime 	198.1
scalar RSUExampleScenario.node[66].veinsmobility 	totalTime 	293.4
scalar RSUExampleScenario.node[66].veinsmobility 	stopTime 	491.6
scalar RSUExampleScenario.node[66].veinsmobility 	minSpeed 	0.25684071742091
scalar RSUExampleScenario.node[66].veinsmobility 	maxSpeed 	13.999941392224
scalar RSUExampleScenario.node[66].veinsmobility 	totalDistance 	3409.9952119124
scalar RSUExampleScenario.node[66].veinsmobility 	totalCO2Emission 	716.61439972856
scalar RSUExampleScenario.node[67].veinsmobility 	startTime 	201.1
scalar RSUExampleScenario.node[67].veinsmobility 	totalTime 	294.2
scalar RSUExampleScenario.node[67].veinsmobility 	stopTime 	495.4
scalar RSUExampleScenario.node[67].veinsmobility 	minSpeed 	0.25327774154814
scalar RSUExampleScenario.node[67].veinsmobility 	maxSpeed 	13.999946147082
scalar RSUExampleScenario.node[67].veinsmobility 	totalDistance 	3414.1450565582
scalar RSUExampleScenario.node[67].veinsmobility 	totalCO2Emission 	714.3022790475
scalar RSUExampleScenario.node[68].veinsmobility 	startTime 	204.1
scalar RSUExampleScenario.node[68].veinsmobility 	totalTime 	295
scalar RSUExampleScenario.node[68].veinsmobility 	stopTime 	499.2
scalar RSUExampleScenario.node[68].veinsmobility 	minSpeed 	0.25702819120069
scalar RSUExampleScenario.node[68].veinsmobility 	maxSpeed 	13.999970202926
scalar RSUExampleScenario.node[68].veinsmobility 	totalDistance 	3410.2287649567
scalar RSUExampleScenario.node[68].veinsmobility 	totalCO2Emission 	719.34709250874
scalar RSUExampleScenario.node[69].veinsmobility 	startTime 	207.1
scalar RSUExampleScenario.node[69].veinsmobility 	totalTime 	295.7
scalar RSUExampleScenario.node[69].veinsmobility 	stopTime 	502.9
scalar RSUExampleScenario.node[69].veinsmobility 	minSpeed 	0.24867577060778
scalar RSUExampleScenario.node[69].veinsmobility 	maxSpeed 	13.9998332268
scalar RSUExampleScenario.node[69].veinsmobility 	totalDistance 	3413.6760431588
scalar RSUExampleScenario.node[69].veinsmobility 	totalCO2Emission 	715.38465684192
scalar RSUExampleScenario.node[70].veinsmobility 	startTime 	210.1
scalar RSUExampleScenario.node[70].veinsmobility 	totalTime 	296.5
scalar RSUExampleScenario.node[70].veinsmobility 	stopTime 	506.7
scalar RSUExampleScenario.node[70].veinsmobility 	minSpeed 	0.25308431605669
scalar RSUExampleScenario.node[70].veinsmobility 	maxSpeed 	13.999997055985
scalar RSUExampleScenario.node[70].veinsmobility 	totalDistance 	3410.1968404684
scalar RSUExampleScenario.node[70].veinsmobility 	totalCO2Emission 	716.78438067169
scalar RSUExampleScenario.node[71].veinsmobility 	startTime 	213.1
scalar RSUExampleScenario.node[71].veinsmobility 	totalTime 	297.2
scalar RSUExampleScenario.node[71].veinsmobility 	stopTime 	510.4
scalar RSUExampleScenario.node[71].veinsmobility 	minSpeed 	0.25689330050279
scalar RSUExampleScenario.node[71].veinsmobility 	maxSpeed 	13.999559060887
scalar RSUExampleScenario.node[71].veinsmobility 	totalDistance 	3413.8468202491
scalar RSUExampleScenario.node[71].veinsmobility 	totalCO2Emission 	720.66984464643
scalar RSUExampleScenario.node[72].veinsmobility 	startTime 	216.1
scalar RSUExampleScenario.node[72].veinsmobility 	totalTime 	297.9
scalar RSUExampleScenario.node[72].veinsmobility 	stopTime 	514.1
scalar RSUExampleScenario.node[72].veinsmobility 	minSpeed 	0.2570980899604
scalar RSUExampleScenario.node[72].veinsmobility 	maxSpeed 	13.999891306823
scalar RSUExampleScenario.node[72].veinsmobility 	totalDistance 	3409.7418183126
scalar RSUExampleScenario.node[72].veinsmobility 	totalCO2Emission 	718.50757897247
scalar RSUExampleScenario.node[73].veinsmobility 	startTime 	219.1
scalar RSUExampleScenario.node[73].veinsmobility 	totalTime 	298.6
scalar RSUExampleScenario.node[73].veinsmobility 	stopTime 	517.8
scalar RSUExampleScenario.node[73].veinsmobility 	minSpeed 	0.25260529898177
scalar RSUExampleScenario.node[73].veinsmobility 	maxSpeed 	13.999969299003
scalar RSUExampleScenario.node[73].veinsmobility 	totalDistance 	3413.9315121097
scalar RSUExampleScenario.node[73].veinsmobility 	totalCO2Emission 	717.88221363425
scalar RSUExampleScenario.node[74].veinsmobility 	startTime 	222.1
scalar RSUExampleScenario.node[74].veinsmobility 	totalTime 	299.3
scalar RSUExampleScenario.node[74].veinsmobility 	stopTime 	521.5
scalar RSUExampleScenario.node[74].veinsmobility 	minSpeed 	0.25814926995873
scalar RSUExampleScenario.node[74].veinsmobility 	maxSpeed 	13.999944657565
scalar RSUExampleScenario.node[74].veinsmobility 	totalDistance 	3409.6427060807
scalar RSUExampleScenario.node[74].veinsmobility 	totalCO2Emission 	716.75132477756
scalar RSUExampleScenario.node[75].veinsmobility 	startTime 	225.1
scalar RSUExampleScenario.node[75].veinsmobility 	totalTime 	300
scalar RSUExampleScenario.node[75].veinsmobility 	stopTime 	525.2
scalar RSUExampleScenario.node[75].veinsmobility 	minSpeed 	0.24722966990969
scalar RSUExampleScenario.node[75].veinsmobility 	maxSpeed 	13.999892631078
scalar RSUExampleScenario.node[75].veinsmobility 	totalDistance 	3413.7520005938
scalar RSUExampleScenario.node[75].veinsmobility 	totalCO2Emission 	723.51481762946
scalar RSUExampleScenario.node[76].veinsmobility 	startTime 	228.1
scalar RSUExampleScenario.node[76].veinsmobility 	totalTime 	300.6
scalar RSUExampleScenario.node[76].veinsmobility 	stopTime 	528.8
scalar RSUExampleScenario.node[76].veinsmobility 	minSpeed 	0.25946722495812
scalar RSUExampleScenario.node[76].veinsmobility 	maxSpeed 	13.999745662401
scalar RSUExampleScenario.node[76].veinsmobility 	totalDistance 	3409.9943284352
scalar RSUExampleScenario.node[76].veinsmobility 	totalCO2Emission 	719.2660294504
scalar RSUExampleScenario.node[77].veinsmobility 	startTime 	231.1
scalar RSUExampleScenario.node[77].veinsmobility 	totalTime 	301.3
scalar RSUExampleScenario.node[77].veinsmobility 	stopTime 	532.5
scalar RSUExampleScenario.node[77].veinsmobility 	minSpeed 	0.2490832792928
scalar RSUExampleScenario.node[77].veinsmobility 	maxSpeed 	13.999982860542
scalar RSUExampleScenario.node[77].veinsmobility 	totalDistance 	3413.7860537665
scalar RSUExampleScenario.node[77].veinsmobility 	totalCO2Emission 	723.13602128552
scalar RSUExampleScenario.node[78].veinsmobility 	startTime 	234.1
scalar RSUExampleScenario.node[78].veinsmobility 	totalTime 	302
scalar RSUExampleScenario.node[78].veinsmobility 	stopTime 	536.2
scalar RSUExampleScenario.node[78].veinsmobility 	minSpeed 	0.24777398929978
scalar RSUExampleScenario.node[78].veinsmobility 	maxSpeed 	13.999867728942
scalar RSUExampleScenario.node[78].veinsmobility 	totalDistance 	3409.5820208925
scalar RSUExampleScenario.node[78].veinsmobility 	totalCO2Emission 	718.88559842396
scalar RSUExampleScenario.node[79].veinsmobility 	startTime 	237.1
scalar RSUExampleScenario.node[79].veinsmobility 	totalTime 	302.8
scalar RSUExampleScenario.node[79].veinsmobility 	stopTime 	540
scalar RSUExampleScenario.node[79].veinsmobility 	minSpeed 	0.25234181290586
scalar RSUExampleScenario.node[79].veinsmobility 	maxSpeed 	13.999834757422
scalar RSUExampleScenario.node[79].veinsmobility 	totalDistance 	3414.2437288173
scalar RSUExampleScenario.node[79].veinsmobility 	totalCO2Emission 	726.28753091438
scalar RSUExampleScenario.node[80].veinsmobility 	startTime 	240.1
scalar RSUExampleScenario.node[80].veinsmobility 	totalTime 	303.5
scalar RSUExampleScenario.node[80].veinsmobility 	stopTime 	543.7
scalar RSUExampleScenario.node[80].veinsmobility 	minSpeed 	0.25245218930952
scalar RSUExampleScenario.node[80].veinsmobility 	maxSpeed 	13.999995137025
scalar RSUExampleScenario.node[80].veinsmobility 	totalDistance 	3409.6815289845
scalar RSUExampleScenario.node[80].veinsmobility 	totalCO2Emission 	727.78101929163
scalar RSUExampleScenario.node[81].veinsmobility 	startTime 	243.1
scalar RSUExampleScenario.node[81].veinsmobility 	totalTime 	304.2
scalar RSUExampleScenario.node[81].veinsmobility 	stopTime 	547.4
scalar RSUExampleScenario.node[81].veinsmobility 	minSpeed 	0.24801765152323
scalar RSUExampleScenario.node[81].veinsmobility 	maxSpeed 	13.999518272115
scalar RSUExampleScenario.node[81].veinsmobility 	totalDistance 	3414.2119381824
scalar RSUExampleScenario.node[81].veinsmobility 	totalCO2Emission 	725.75755580105
scalar RSUExampleScenario.node[82].veinsmobility 	startTime 	246.1
scalar RSUExampleScenario.node[82].veinsmobility 	totalTime 	304.9
scalar RSUExampleScenario.node[82].veinsmobility 	stopTime 	551.1
scalar RSUExampleScenario.node[82].veinsmobility 	minSpeed 	0.24784814887145
scalar RSUExampleScenario.node[82].veinsmobility 	maxSpeed 	13.999978792435
scalar RSUExampleScenario.node[82].veinsmobility 	totalDistance 	3409.9178428128
scalar RSUExampleScenario.node[82].veinsmobility 	totalCO2Emission 	724.85580945182
scalar RSUExampleScenario.node[83].veinsmobility 	startTime 	249.1
scalar RSUExampleScenario.node[83].veinsmobility 	totalTime 	305.5
scalar RSUExampleScenario.node[83].veinsmobility 	stopTime 	554.7
scalar RSUExampleScenario.node[83].veinsmobility 	minSpeed 	0.25732341528242
scalar RSUExampleScenario.node[83].veinsmobility 	maxSpeed 	13.999989913134
scalar RSUExampleScenario.node[83].veinsmobility 	totalDistance 	3413.5317549993
scalar RSUExampleScenario.node[83].veinsmobility 	totalCO2Emission 	724.86420672983
scalar RSUExampleScenario.node[84].veinsmobility 	startTime 	252.1
scalar RSUExampleScenario.node[84].veinsmobility 	totalTime 	306.2
scalar RSUExampleScenario.node[84].veinsmobility 	stopTime 	558.4
scalar RSUExampleScenario.node[84].veinsmobility 	minSpeed 	0.25564298921963
scalar RSUExampleScenario.node[84].veinsmobility 	maxSpeed 	13.999861324055
scalar RSUExampleScenario.node[84].veinsmobility 	totalDistance 	3410.1304969125
scalar RSUExampleScenario.node[84].veinsmobility 	totalCO2Emission 	732.21722958179
scalar RSUExampleScenario.node[85].veinsmobility 	startTime 	255.1
scalar RSUExampleScenario.node[85].veinsmobility 	totalTime 	306.9
scalar RSUExampleScenario.node[85].veinsmobility 	stopTime 	562.1
scalar RSUExampleScenario.node[85].veinsmobility 	minSpeed 	0.25921457219613
scalar RSUExampleScenario.node[85].veinsmobility 	maxSpeed 	13.999881992033
scalar RSUExampleScenario.node[85].veinsmobility 	totalDistance 	3414.1955348673
scalar RSUExampleScenario.node[85].veinsmobility 	totalCO2Emission 	726.00472496097
scalar RSUExampleScenario.node[86].veinsmobility 	startTime 	258.1
scalar RSUExampleScenario.node[86].veinsmobility 	totalTime 	307.6
scalar RSUExampleScenario.node[86].veinsmobility 	stopTime 	565.8
scalar RSUExampleScenario.node[86].veinsmobility 	minSpeed 	0.25258498118608
scalar RSUExampleScenario.node[86].veinsmobility 	maxSpeed 	13.999975461836
scalar RSUExampleScenario.node[86].veinsmobility 	totalDistance 	3409.7827122303
scalar RSUExampleScenario.node[86].veinsmobility 	totalCO2Emission 	727.22324575624
scalar RSUExampleScenario.node[87].veinsmobility 	startTime 	261.1
scalar RSUExampleScenario.node[87].veinsmobility 	totalTime 	308.2
scalar RSUExampleScenario.node[87].veinsmobility 	stopTime 	569.4
scalar RSUExampleScenario.node[87].veinsmobility 	minSpeed 	0.25602772063855
scalar RSUExampleScenario.node[87].veinsmobility 	maxSpeed 	13.999993476039
scalar RSUExampleScenario.node[87].veinsmobility 	totalDistance 	3413.6249828773
scalar RSUExampleScenario.node[87].veinsmobility 	totalCO2Emission 	730.95784708428
scalar RSUExampleScenario.node[88].veinsmobility 	startTime 	264.1
scalar RSUExampleScenario.node[88].veinsmobility 	totalTime 	309
scalar RSUExampleScenario.node[88].veinsmobility 	stopTime 	573.2
scalar RSUExampleScenario.node[88].veinsmobility 	minSpeed 	0.25213703166903
scalar RSUExampleScenario.node[88].veinsmobility 	maxSpeed 	13.999989525795
scalar RSUExampleScenario.node[88].veinsmobility 	totalDistance 	3409.8764273881
scalar RSUExampleScenario.node[88].veinsmobility 	totalCO2Emission 	731.54178823671
scalar RSUExampleScenario.node[89].veinsmobility 	startTime 	267.1
scalar RSUExampleScenario.node[89].veinsmobility 	totalTime 	309.7
scalar RSUExampleScenario.node[89].veinsmobility 	stopTime 	576.9
scalar RSUExampleScenario.node[89].veinsmobility 	minSpeed 	0.25343136602733
scalar RSUExampleScenario.node[89].veinsmobility 	maxSpeed 	13.999911224488
scalar RSUExampleScenario.node[89].veinsmobility 	totalDistance 	3413.8283048728
scalar RSUExampleScenario.node[89].veinsmobility 	totalCO2Emission 	729.75683607292
scalar RSUExampleScenario.node[90].veinsmobility 	startTime 	270.1
scalar RSUExampleScenario.node[90].veinsmobility 	totalTime 	310.4
scalar RSUExampleScenario.node[90].veinsmobility 	stopTime 	580.6
scalar RSUExampleScenario.node[90].veinsmobility 	minSpeed 	0.25490067982324
scalar RSUExampleScenario.node[90].veinsmobility 	maxSpeed 	13.999951776019
scalar RSUExampleScenario.node[90].veinsmobility 	totalDistance 	3410.1510168067
scalar RSUExampleScenario.node[90].veinsmobility 	totalCO2Emission 	732.98305707444
scalar RSUExampleScenario.node[91].veinsmobility 	startTime 	273.1
scalar RSUExampleScenario.node[91].veinsmobility 	totalTime 	311.1
scalar RSUExampleScenario.node[91].veinsmobility 	stopTime 	584.3
scalar RSUExampleScenario.node[91].veinsmobility 	minSpeed 	0.25515340155689
scalar RSUExampleScenario.node[91].veinsmobility 	maxSpeed 	13.99997432376
scalar RSUExampleScenario.node[91].veinsmobility 	totalDistance 	3413.9826163149
scalar RSUExampleScenario.node[91].veinsmobility 	totalCO2Emission 	732.84641823348
scalar RSUExampleScenario.node[92].veinsmobility 	startTime 	276.1
scalar RSUExampleScenario.node[92].veinsmobility 	totalTime 	311.8
scalar RSUExampleScenario.node[92].veinsmobility 	stopTime 	588
scalar RSUExampleScenario.node[92].veinsmobility 	minSpeed 	0.24837168517127
scalar RSUExampleScenario.node[92].veinsmobility 	maxSpeed 	13.999988562637
scalar RSUExampleScenario.node[92].veinsmobility 	totalDistance 	3409.8218186325
scalar RSUExampleScenario.node[92].veinsmobility 	totalCO2Emission 	735.33104657309
scalar RSUExampleScenario.node[93].veinsmobility 	startTime 	279.1
scalar RSUExampleScenario.node[93].veinsmobility 	totalTime 	312.5
scalar RSUExampleScenario.node[93].veinsmobility 	stopTime 	591.7
scalar RSUExampleScenario.node[93].veinsmobility 	minSpeed 	0.2559013214116
scalar RSUExampleScenario.node[93].veinsmobility 	maxSpeed 	13.999944548963
scalar RSUExampleScenario.node[93].veinsmobility 	totalDistance 	3413.6351294614
scalar RSUExampleScenario.node[93].veinsmobility 	totalCO2Emission 	730.22960312028
scalar RSUExampleScenario.node[94].veinsmobility 	startTime 	282.1
scalar RSUExampleScenario.node[94].veinsmobility 	totalTime 	313.2
scalar RSUExampleScenario.node[94].veinsmobility 	stopTime 	595.4
scalar RSUExampleScenario.node[94].veinsmobility 	minSpeed 	0.25093820464914
scalar RSUExampleScenario.node[94].veinsmobility 	maxSpeed 	13.999937803077
scalar RSUExampleScenario.node[94].veinsmobility 	totalDistance 	3410.1188342606
scalar RSUExampleScenario.node[94].veinsmobility 	totalCO2Emission 	733.57358662802
scalar RSUExampleScenario.node[95].veinsmobility 	startTime 	285.1
scalar RSUExampleScenario.node[95].veinsmobility 	totalTime 	313.8
scalar RSUExampleScenario.node[95].veinsmobility 	stopTime 	599
scalar RSUExampleScenario.node[95].veinsmobility 	minSpeed 	0.2485976180716
scalar RSUExampleScenario.node[95].veinsmobility 	maxSpeed 	13.999992778574
scalar RSUExampleScenario.node[95].veinsmobility 	totalDistance 	3413.8432859953
scalar RSUExampleScenario.node[95].veinsmobility 	totalCO2Emission 	736.7510573544
scalar RSUExampleScenario.node[96].veinsmobility 	startTime 	288.1
scalar RSUExampleScenario.node[96].veinsmobility 	totalTime 	314.5
scalar RSUExampleScenario.node[96].veinsmobility 	stopTime 	602.7
scalar RSUExampleScenario.node[96].veinsmobility 	minSpeed 	0.24980845120805
scalar RSUExampleScenario.node[96].veinsmobility 	maxSpeed 	13.999968651389
scalar RSUExampleScenario.node[96].veinsmobility 	totalDistance 	3410.1110787891
scalar RSUExampleScenario.node[96].veinsmobility 	totalCO2Emission 	735.46358477025
scalar RSUExampleScenario.node[97].veinsmobility 	startTime 	291.1
scalar RSUExampleScenario.node[97].veinsmobility 	totalTime 	315.1
scalar RSUExampleScenario.node[97].veinsmobility 	stopTime 	606.3
scalar RSUExampleScenario.node[97].veinsmobility 	minSpeed 	0.25682103811018
scalar RSUExampleScenario.node[97].veinsmobility 	maxSpeed 	13.99985110634
scalar RSUExampleScenario.node[97].veinsmobility 	totalDistance 	3413.7726769765
scalar RSUExampleScenario.node[97].veinsmobility 	totalCO2Emission 	737.14890209138
scalar RSUExampleScenario.node[98].veinsmobility 	startTime 	294.1
scalar RSUExampleScenario.node[98].veinsmobility 	totalTime 	315.8
scalar RSUExampleScenario.node[98].veinsmobility 	stopTime 	610
scalar RSUExampleScenario.node[98].veinsmobility 	minSpeed 	0.25146694689989
scalar RSUExampleScenario.node[98].veinsmobility 	maxSpeed 	13.99996050915
scalar RSUExampleScenario.node[98].veinsmobility 	totalDistance 	3410.1497908398
scalar RSUExampleScenario.node[98].veinsmobility 	totalCO2Emission 	736.28890398286
scalar RSUExampleScenario.node[99].veinsmobility 	startTime 	297.1
scalar RSUExampleScenario.node[99].veinsmobility 	totalTime 	316.6
scalar RSUExampleScenario.node[99].veinsmobility 	stopTime 	613.8
scalar RSUExampleScenario.node[99].veinsmobility 	minSpeed 	0.24777104308386
scalar RSUExampleScenario.node[99].veinsmobility 	maxSpeed 	13.999936209468
scalar RSUExampleScenario.node[99].veinsmobility 	totalDistance 	3414.2620184105
scalar RSUExampleScenario.node[99].veinsmobility 	totalCO2Emission 	740.33357128106
scalar RSUExampleScenario.node[100].veinsmobility 	startTime 	300.1
scalar RSUExampleScenario.node[100].veinsmobility 	totalTime 	317.3
scalar RSUExampleScenario.node[100].veinsmobility 	stopTime 	617.5
scalar RSUExampleScenario.node[100].veinsmobility 	minSpeed 	0.24811886855355
scalar RSUExampleScenario.node[100].veinsmobility 	maxSpeed 	13.999966547885
scalar RSUExampleScenario.node[100].veinsmobility 	totalDistance 	3409.7150383392
scalar RSUExampleScenario.node[100].veinsmobility 	totalCO2Emission 	734.42260820103
scalar RSUExampleScenario.node[101].veinsmobility 	startTime 	303.1
scalar RSUExampleScenario.node[101].veinsmobility 	totalTime 	318
scalar RSUExampleScenario.node[101].veinsmobility 	stopTime 	621.2
scalar RSUExampleScenario.node[101].veinsmobility 	minSpeed 	0.25659085126873
scalar RSUExampleScenario.node[101].veinsmobility 	maxSpeed 	13.999985091444
scalar RSUExampleScenario.node[101].veinsmobility 	totalDistance 	3414.2909204127
scalar RSUExampleScenario.node[101].veinsmobility 	totalCO2Emission 	740.47114212321
scalar RSUExampleScenario.node[102].veinsmobility 	startTime 	306.1
scalar RSUExampleScenario.node[102].veinsmobility 	totalTime 	318.7
scalar RSUExampleScenario.node[102].veinsmobility 	stopTime 	624.9
scalar RSUExampleScenario.node[102].veinsmobility 	minSpeed 	0.25745042578038
scalar RSUExampleScenario.node[102].veinsmobility 	maxSpeed 	13.999985032089
scalar RSUExampleScenario.node[102].veinsmobility 	totalDistance 	3409.6533541801
scalar RSUExampleScenario.node[102].veinsmobility 	totalCO2Emission 	740.10259517645
scalar RSUExampleScenario.node[103].veinsmobility 	startTime 	309.1
scalar RSUExampleScenario.node[103].veinsmobility 	totalTime 	319.4
scalar RSUExampleScenario.node[103].veinsmobility 	stopTime 	628.6
scalar RSUExampleScenario.node[103].veinsmobility 	minSpeed 	0.24754990407825
scalar RSUExampleScenario.node[103].veinsmobility 	maxSpeed 	13.999921949918
scalar RSUExampleScenario.node[103].veinsmobility 	totalDistance 	3414.1467507991
scalar RSUExampleScenario.node[103].veinsmobility 	totalCO2Emission 	742.94709369773
scalar RSUExampleScenario.node[104].veinsmobility 	startTime 	312.1
scalar RSUExampleScenario.node[104].veinsmobility 	totalTime 	320.1
scalar RSUExampleScenario.node[104].veinsmobility 	stopTime 	632.3
scalar RSUExampleScenario.node[104].veinsmobility 	minSpeed 	0.25132262938377
scalar RSUExampleScenario.node[104].veinsmobility 	maxSpeed 	13.999945866226
scalar RSUExampleScenario.node[104].veinsmobility 	totalDistance 	3410.0462433594
scalar RSUExampleScenario.node[104].veinsmobility 	totalCO2Emission 	743.54846096994
scalar RSUExampleScenario.node[105].veinsmobility 	startTime 	315.1
scalar RSUExampleScenario.node[105].veinsmobility 	totalTime 	320.8
scalar RSUExampleScenario.node[105].veinsmobility 	stopTime 	636
scalar RSUExampleScenario.node[105].veinsmobility 	minSpeed 	0.25262139211455
scalar RSUExampleScenario.node[105].veinsmobility 	maxSpeed 	13.999882719978
scalar RSUExampleScenario.node[105].veinsmobility 	totalDistance 	3413.8168151966
scalar RSUExampleScenario.node[105].veinsmobility 	totalCO2Emission 	739.72780378713
scalar RSUExampleScenario.node[106].veinsmobility 	startTime 	318.1
scalar RSUExampleScenario.node[106].veinsmobility 	totalTime 	321.5
scalar RSUExampleScenario.node[106].veinsmobility 	stopTime 	639.7
scalar RSUExampleScenario.node[106].veinsmobility 	minSpeed 	0.25067351342924
scalar RSUExampleScenario.node[106].veinsmobility 	maxSpeed 	13.999974028163
scalar RSUExampleScenario.node[106].veinsmobility 	totalDistance 	3409.8421184214
scalar RSUExampleScenario.node[106].veinsmobility 	totalCO2Emission 	741.61372759174
scalar RSUExampleScenario.node[107].veinsmobility 	startTime 	321.1
scalar RSUExampleScenario.node[107].veinsmobility 	totalTime 	322.2
scalar RSUExampleScenario.node[107].veinsmobility 	stopTime 	643.4
scalar RSUExampleScenario.node[107].veinsmobility 	minSpeed 	0.24950168091059
scalar RSUExampleScenario.node[107].veinsmobility 	maxSpeed 	13.999778650054
scalar RSUExampleScenario.node[107].veinsmobility 	totalDistance 	3414.1241659682
scalar RSUExampleScenario.node[107].veinsmobility 	totalCO2Emission 	740.94269407167
scalar RSUExampleScenario.node[108].veinsmobility 	startTime 	324.1
scalar RSUExampleScenario.node[108].veinsmobility 	totalTime 	322.9
scalar RSUExampleScenario.node[108].veinsmobility 	stopTime 	647.1
scalar RSUExampleScenario.node[108].veinsmobility 	minSpeed 	0.25596370579628
scalar RSUExampleScenario.node[108].veinsmobility 	maxSpeed 	13.999844256847
scalar RSUExampleScenario.node[108].veinsmobility 	totalDistance 	3410.1453455727
scalar RSUExampleScenario.node[108].veinsmobility 	totalCO2Emission 	747.30630886389
scalar RSUExampleScenario.node[109].veinsmobility 	startTime 	327.1
scalar RSUExampleScenario.node[109].veinsmobility 	totalTime 	323.5
scalar RSUExampleScenario.node[109].veinsmobility 	stopTime 	650.7
scalar RSUExampleScenario.node[109].veinsmobility 	minSpeed 	0.25416562265088
scalar RSUExampleScenario.node[109].veinsmobility 	maxSpeed 	13.999972556594
scalar RSUExampleScenario.node[109].veinsmobility 	totalDistance 	3413.7228711807
scalar RSUExampleScenario.node[109].veinsmobility 	totalCO2Emission 	742.05927390433
scalar RSUExampleScenario.node[110].veinsmobility 	startTime 	330.1
scalar RSUExampleScenario.node[110].veinsmobility 	totalTime 	324.2
scalar RSUExampleScenario.node[110].veinsmobility 	stopTime 	654.4
scalar RSUExampleScenario.node[110].veinsmobility 	minSpeed 	0.25054672350618
scalar RSUExampleScenario.node[110].veinsmobility 	maxSpeed 	13.999916454826
scalar RSUExampleScenario.node[110].veinsmobility 	totalDistance 	3410.0396325316
scalar RSUExampleScenario.node[110].veinsmobility 	totalCO2Emission 	746.13933778277
scalar RSUExampleScenario.node[111].veinsmobility 	startTime 	333.1
scalar RSUExampleScenario.node[111].veinsmobility 	totalTime 	324.9
scalar RSUExampleScenario.node[111].veinsmobility 	stopTime 	658.1
scalar RSUExampleScenario.node[111].veinsmobility 	minSpeed 	0.25934328566771
scalar RSUExampleScenario.node[111].veinsmobility 	maxSpeed 	13.999865049801
scalar RSUExampleScenario.node[111].veinsmobility 	totalDistance 	3414.0315613717
scalar RSUExampleScenario.node[111].veinsmobility 	totalCO2Emission 	745.85572554218
scalar RSUExampleScenario.node[112].veinsmobility 	startTime 	336.1
scalar RSUExampleScenario.node[112].veinsmobility 	totalTime 	325.6
scalar RSUExampleScenario.node[112].veinsmobility 	stopTime 	661.8
scalar RSUExampleScenario.node[112].veinsmobility 	minSpeed 	0.24855678741215
scalar RSUExampleScenario.node[112].veinsmobility 	maxSpeed 	13.999912790554
scalar RSUExampleScenario.node[112].veinsmobility 	totalDistance 	3409.8965285412
scalar RSUExampleScenario.node[112].veinsmobility 	totalCO2Emission 	752.34296586151
scalar RSUExampleScenario.node[113].veinsmobility 	startTime 	339.1
scalar RSUExampleScenario.node[113].veinsmobility 	totalTime 	326.3
scalar RSUExampleScenario.node[113].veinsmobility 	stopTime 	665.5
scalar RSUExampleScenario.node[113].veinsmobility 	minSpeed 	0.24998801400536
scalar RSUExampleScenario.node[113].veinsmobility 	maxSpeed 	13.999922868763
scalar RSUExampleScenario.node[113].veinsmobility 	totalDistance 	3413.781914332
scalar RSUExampleScenario.node[113].veinsmobility 	totalCO2Emission 	747.8712729974
scalar RSUExampleScenario.node[114].veinsmobility 	startTime 	342.1
scalar RSUExampleScenario.node[114].veinsmobility 	totalTime 	327
scalar RSUExampleScenario.node[114].veinsmobility 	stopTime 	669.2
scalar RSUExampleScenario.node[114].veinsmobility 	minSpeed 	0.25358270615758
scalar RSUExampleScenario.node[114].veinsmobility 	maxSpeed 	13.999861926236
scalar RSUExampleScenario.node[114].veinsmobility 	totalDistance 	3410.0811241861
scalar RSUExampleScenario.node[114].veinsmobility 	totalCO2Emission 	746.47419194823
scalar RSUExampleScenario.node[115].veinsmobility 	startTime 	345.1
scalar RSUExampleScenario.node[115].veinsmobility 	totalTime 	327.6
scalar RSUExampleScenario.node[115].veinsmobility 	stopTime 	672.8
scalar RSUExampleScenario.node[115].veinsmobility 	minSpeed 	0.24916521314764
scalar RSUExampleScenario.node[115].veinsmobility 	maxSpeed 	13.999884313194
scalar RSUExampleScenario.node[115].veinsmobility 	totalDistance 	3413.809154577
scalar RSUExampleScenario.node[115].veinsmobility 	totalCO2Emission 	751.23645518233
scalar RSUExampleScenario.node[116].veinsmobility 	startTime 	348.1
scalar RSUExampleScenario.node[116].veinsmobility 	totalTime 	328.3
scalar RSUExampleScenario.node[116].veinsmobility 	stopTime 	676.5
scalar RSUExampleScenario.node[116].veinsmobility 	minSpeed 	0.24920378046413
scalar RSUExampleScenario.node[116].veinsmobility 	maxSpeed 	13.999826411782
scalar RSUExampleScenario.node[116].veinsmobility 	totalDistance 	3409.8216563738
scalar RSUExampleScenario.node[116].veinsmobility 	totalCO2Emission 	750.60648465523
scalar RSUExampleScenario.node[117].veinsmobility 	startTime 	351.1
scalar RSUExampleScenario.node[117].veinsmobility 	totalTime 	329
scalar RSUExampleScenario.node[117].veinsmobility 	stopTime 	680.2
scalar RSUExampleScenario.node[117].veinsmobility 	minSpeed 	0.25547948346357
scalar RSUExampleScenario.node[117].veinsmobility 	maxSpeed 	13.999940883298
scalar RSUExampleScenario.node[117].veinsmobility 	totalDistance 	3414.1187442955
scalar RSUExampleScenario.node[117].veinsmobility 	totalCO2Emission 	750.40561884688
scalar RSUExampleScenario.node[118].veinsmobility 	startTime 	354.1
scalar RSUExampleScenario.node[118].veinsmobility 	totalTime 	329.8
scalar RSUExampleScenario.node[118].veinsmobility 	stopTime 	684
scalar RSUExampleScenario.node[118].veinsmobility 	minSpeed 	0.25550270358357
scalar RSUExampleScenario.node[118].veinsmobility 	maxSpeed 	13.999883725722
scalar RSUExampleScenario.node[118].veinsmobility 	totalDistance 	3410.1130238565
scalar RSUExampleScenario.node[118].veinsmobility 	totalCO2Emission 	751.5872512502
scalar RSUExampleScenario.node[119].veinsmobility 	startTime 	357.1
scalar RSUExampleScenario.node[119].veinsmobility 	totalTime 	330.5
scalar RSUExampleScenario.node[119].veinsmobility 	stopTime 	687.7
scalar RSUExampleScenario.node[119].veinsmobility 	minSpeed 	0.25462496653525
scalar RSUExampleScenario.node[119].veinsmobility 	maxSpeed 	13.99999840179
scalar RSUExampleScenario.node[119].veinsmobility 	totalDistance 	3413.8944673431
scalar RSUExampleScenario.node[119].veinsmobility 	totalCO2Emission 	750.720862101
scalar RSUExampleScenario.node[120].veinsmobility 	startTime 	360.1
scalar RSUExampleScenario.node[120].veinsmobility 	totalTime 	331.3
scalar RSUExampleScenario.node[120].veinsmobility 	stopTime 	691.5
scalar RSUExampleScenario.node[120].veinsmobility 	minSpeed 	0.24769318711944
scalar RSUExampleScenario.node[120].veinsmobility 	maxSpeed 	13.999997494265
scalar RSUExampleScenario.node[120].veinsmobility 	totalDistance 	3409.8877287778
scalar RSUExampleScenario.node[120].veinsmobility 	totalCO2Emission 	755.26314074683
scalar RSUExampleScenario.node[121].veinsmobility 	startTime 	363.1
scalar RSUExampleScenario.node[121].veinsmobility 	totalTime 	332
scalar RSUExampleScenario.node[121].veinsmobility 	stopTime 	695.2
scalar RSUExampleScenario.node[121].veinsmobility 	minSpeed 	0.25662956764898
scalar RSUExampleScenario.node[121].veinsmobility 	maxSpeed 	13.999972901952
scalar RSUExampleScenario.node[121].veinsmobility 	totalDistance 	3413.6669583677
scalar RSUExampleScenario.node[121].veinsmobility 	totalCO2Emission 	757.63247246723
scalar RSUExampleScenario.node[122].veinsmobility 	startTime 	366.1
scalar RSUExampleScenario.node[122].veinsmobility 	totalTime 	332.7
scalar RSUExampleScenario.node[122].veinsmobility 	stopTime 	698.9
scalar RSUExampleScenario.node[122].veinsmobility 	minSpeed 	0.25861523945024
scalar RSUExampleScenario.node[122].veinsmobility 	maxSpeed 	13.999995517735
scalar RSUExampleScenario.node[122].veinsmobility 	totalDistance 	3410.2671470585
scalar RSUExampleScenario.node[122].veinsmobility 	totalCO2Emission 	751.85431689664
scalar RSUExampleScenario.node[123].veinsmobility 	startTime 	369.1
scalar RSUExampleScenario.node[123].veinsmobility 	totalTime 	333.5
scalar RSUExampleScenario.node[123].veinsmobility 	stopTime 	702.7
scalar RSUExampleScenario.node[123].veinsmobility 	minSpeed 	0.24959101437638
scalar RSUExampleScenario.node[123].veinsmobility 	maxSpeed 	13.999964772093
scalar RSUExampleScenario.node[123].veinsmobility 	totalDistance 	3414.1003815624
scalar RSUExampleScenario.node[123].veinsmobility 	totalCO2Emission 	749.71879171758
scalar RSUExampleScenario.node[124].veinsmobility 	startTime 	372.1
scalar RSUExampleScenario.node[124].veinsmobility 	totalTime 	334.2
scalar RSUExampleScenario.node[124].veinsmobility 	stopTime 	706.4
scalar RSUExampleScenario.node[124].veinsmobility 	minSpeed 	0.25082244889834
scalar RSUExampleScenario.node[124].veinsmobility 	maxSpeed 	13.999706737108
scalar RSUExampleScenario.node[124].veinsmobility 	totalDistance 	3409.7938527826
scalar RSUExampleScenario.node[124].veinsmobility 	totalCO2Emission 	759.15206836554
scalar RSUExampleScenario.node[125].veinsmobility 	startTime 	375.1
scalar RSUExampleScenario.node[125].veinsmobility 	totalTime 	334.9
scalar RSUExampleScenario.node[125].veinsmobility 	stopTime 	710.1
scalar RSUExampleScenario.node[125].veinsmobility 	minSpeed 	0.25126107652416
scalar RSUExampleScenario.node[125].veinsmobility 	maxSpeed 	13.99985498043
scalar RSUExampleScenario.node[125].veinsmobility 	totalDistance 	3414.2027808258
scalar RSUExampleScenario.node[125].veinsmobility 	totalCO2Emission 	760.17101502214
scalar RSUExampleScenario.node[126].veinsmobility 	startTime 	378.1
scalar RSUExampleScenario.node[126].veinsmobility 	totalTime 	335.6
scalar RSUExampleScenario.node[126].veinsmobility 	stopTime 	713.8
scalar RSUExampleScenario.node[126].veinsmobility 	minSpeed 	0.25695627942635
scalar RSUExampleScenario.node[126].veinsmobility 	maxSpeed 	13.99988480526
scalar RSUExampleScenario.node[126].veinsmobility 	totalDistance 	3410.2629309175
scalar RSUExampleScenario.node[126].veinsmobility 	totalCO2Emission 	758.92852967625
scalar RSUExampleScenario.node[127].veinsmobility 	startTime 	381.1
scalar RSUExampleScenario.node[127].veinsmobility 	totalTime 	336.2
scalar RSUExampleScenario.node[127].veinsmobility 	stopTime 	717.4
scalar RSUExampleScenario.node[127].veinsmobility 	minSpeed 	0.2552470595215
scalar RSUExampleScenario.node[127].veinsmobility 	maxSpeed 	13.999763358275
scalar RSUExampleScenario.node[127].veinsmobility 	totalDistance 	3413.670377644
scalar RSUExampleScenario.node[127].veinsmobility 	totalCO2Emission 	753.69005090377
scalar RSUExampleScenario.node[128].veinsmobility 	startTime 	384.1
scalar RSUExampleScenario.node[128].veinsmobility 	totalTime 	336.8
scalar RSUExampleScenario.node[128].veinsmobility 	stopTime 	721
scalar RSUExampleScenario.node[128].veinsmobility 	minSpeed 	0.25797171563585
scalar RSUExampleScenario.node[128].veinsmobility 	maxSpeed 	13.999833413069
scalar RSUExampleScenario.node[128].veinsmobility 	totalDistance 	3409.8193124244
scalar RSUExampleScenario.node[128].veinsmobility 	totalCO2Emission 	758.86667908211
scalar RSUExampleScenario.node[129].veinsmobility 	startTime 	387.1
scalar RSUExampleScenario.node[129].veinsmobility 	totalTime 	337.5
scalar RSUExampleScenario.node[129].veinsmobility 	stopTime 	724.7
scalar RSUExampleScenario.node[129].veinsmobility 	minSpeed 	0.25429406551761
scalar RSUExampleScenario.node[129].veinsmobility 	maxSpeed 	13.999847537624
scalar RSUExampleScenario.node[129].veinsmobility 	totalDistance 	3409.7688332881
scalar RSUExampleScenario.node[129].veinsmobility 	totalCO2Emission 	755.47777950082
scalar RSUExampleScenario.node[130].veinsmobility 	startTime 	390.1
scalar RSUExampleScenario.node[130].veinsmobility 	totalTime 	338.2
scalar RSUExampleScenario.node[130].veinsmobility 	stopTime 	728.4
scalar RSUExampleScenario.node[130].veinsmobility 	minSpeed 	0.25358199366438
scalar RSUExampleScenario.node[130].veinsmobility 	maxSpeed 	13.999998002434
scalar RSUExampleScenario.node[130].veinsmobility 	totalDistance 	3414.1408126295
scalar RSUExampleScenario.node[130].veinsmobility 	totalCO2Emission 	762.22530052946
scalar RSUExampleScenario.node[131].veinsmobility 	startTime 	393.1
scalar RSUExampleScenario.node[131].veinsmobility 	totalTime 	338.9
scalar RSUExampleScenario.node[131].veinsmobility 	stopTime 	732.1
scalar RSUExampleScenario.node[131].veinsmobility 	minSpeed 	0.2488974208124
scalar RSUExampleScenario.node[131].veinsmobility 	maxSpeed 	13.999849718492
scalar RSUExampleScenario.node[131].veinsmobility 	totalDistance 	3409.8163518523
scalar RSUExampleScenario.node[131].veinsmobility 	totalCO2Emission 	757.97853824836
scalar RSUExampleScenario.node[132].veinsmobility 	startTime 	396.1
scalar RSUExampleScenario.node[132].veinsmobility 	totalTime 	339.6
scalar RSUExampleScenario.node[132].veinsmobility 	stopTime 	735.8
scalar RSUExampleScenario.node[132].veinsmobility 	minSpeed 	0.24765239019669
scalar RSUExampleScenario.node[132].veinsmobility 	maxSpeed 	13.999864972043
scalar RSUExampleScenario.node[132].veinsmobility 	totalDistance 	3414.1957410011
scalar RSUExampleScenario.node[132].veinsmobility 	totalCO2Emission 	759.00347900412
scalar RSUExampleScenario.node[133].veinsmobility 	startTime 	399.1
scalar RSUExampleScenario.node[133].veinsmobility 	totalTime 	340.3
scalar RSUExampleScenario.node[133].veinsmobility 	stopTime 	739.5
scalar RSUExampleScenario.node[133].veinsmobility 	minSpeed 	0.25561437728512
scalar RSUExampleScenario.node[133].veinsmobility 	maxSpeed 	13.99996618364
scalar RSUExampleScenario.node[133].veinsmobility 	totalDistance 	3410.1558915646
scalar RSUExampleScenario.node[133].veinsmobility 	totalCO2Emission 	763.0512398476
scalar RSUExampleScenario.node[134].veinsmobility 	startTime 	402.1
scalar RSUExampleScenario.node[134].veinsmobility 	totalTime 	341
scalar RSUExampleScenario.node[134].veinsmobility 	stopTime 	743.2
scalar RSUExampleScenario.node[134].veinsmobility 	minSpeed 	0.25487608351791
scalar RSUExampleScenario.node[134].veinsmobility 	maxSpeed 	13.999991411974
scalar RSUExampleScenario.node[134].veinsmobility 	totalDistance 	3413.9977934764
scalar RSUExampleScenario.node[134].veinsmobility 	totalCO2Emission 	762.15235040938
scalar RSUExampleScenario.node[135].veinsmobility 	startTime 	405.1
scalar RSUExampleScenario.node[135].veinsmobility 	totalTime 	341.7
scalar RSUExampleScenario.node[135].veinsmobility 	stopTime 	746.9
scalar RSUExampleScenario.node[135].veinsmobility 	minSpeed 	0.24821388352569
scalar RSUExampleScenario.node[135].veinsmobility 	maxSpeed 	13.999830158807
scalar RSUExampleScenario.node[135].veinsmobility 	totalDistance 	3409.9261849084
scalar RSUExampleScenario.node[135].veinsmobility 	totalCO2Emission 	764.06882580355
scalar RSUExampleScenario.node[136].veinsmobility 	startTime 	408.1
scalar RSUExampleScenario.node[136].veinsmobility 	totalTime 	342.5
scalar RSUExampleScenario.node[136].veinsmobility 	stopTime 	750.7
scalar RSUExampleScenario.node[136].veinsmobility 	minSpeed 	0.25675367378257
scalar RSUExampleScenario.node[136].veinsmobility 	maxSpeed 	13.999998996647
scalar RSUExampleScenario.node[136].veinsmobility 	totalDistance 	3414.3589975368
scalar RSUExampleScenario.node[136].veinsmobility 	totalCO2Emission 	762.37571602292
scalar RSUExampleScenario.node[137].veinsmobility 	startTime 	411.1
scalar RSUExampleScenario.node[137].veinsmobility 	totalTime 	343.2
scalar RSUExampleScenario.node[137].veinsmobility 	stopTime 	754.4
scalar RSUExampleScenario.node[137].veinsmobility 	minSpeed 	0.25751523999101
scalar RSUExampleScenario.node[137].veinsmobility 	maxSpeed 	13.999987616853
scalar RSUExampleScenario.node[137].veinsmobility 	totalDistance 	3409.8474937029
scalar RSUExampleScenario.node[137].veinsmobility 	totalCO2Emission 	766.18560984631
scalar RSUExampleScenario.node[138].veinsmobility 	startTime 	414.1
scalar RSUExampleScenario.node[138].veinsmobility 	totalTime 	344
scalar RSUExampleScenario.node[138].veinsmobility 	stopTime 	758.2
scalar RSUExampleScenario.node[138].veinsmobility 	minSpeed 	0.25253378485306
scalar RSUExampleScenario.node[138].veinsmobility 	maxSpeed 	13.999875064297
scalar RSUExampleScenario.node[138].veinsmobility 	totalDistance 	3414.3013926607
scalar RSUExampleScenario.node[138].veinsmobility 	totalCO2Emission 	764.38002562359
scalar RSUExampleScenario.node[139].veinsmobility 	startTime 	417.1
scalar RSUExampleScenario.node[139].veinsmobility 	totalTime 	344.7
scalar RSUExampleScenario.node[139].veinsmobility 	stopTime 	761.9
scalar RSUExampleScenario.node[139].veinsmobility 	minSpeed 	0.25543096997263
scalar RSUExampleScenario.node[139].veinsmobility 	maxSpeed 	13.999977910547
scalar RSUExampleScenario.node[139].veinsmobility 	totalDistance 	3410.1245483416
scalar RSUExampleScenario.node[139].veinsmobility 	totalCO2Emission 	766.55661661886
scalar RSUExampleScenario.node[140].veinsmobility 	startTime 	420.1
scalar RSUExampleScenario.node[140].veinsmobility 	totalTime 	345.4
scalar RSUExampleScenario.node[140].veinsmobility 	stopTime 	765.6
scalar RSUExampleScenario.node[140].veinsmobility 	minSpeed 	0.25198179451772
scalar RSUExampleScenario.node[140].veinsmobility 	maxSpeed 	13.999963808027
scalar RSUExampleScenario.node[140].veinsmobility 	totalDistance 	3414.0857915399
scalar RSUExampleScenario.node[140].veinsmobility 	totalCO2Emission 	767.15545506677
scalar RSUExampleScenario.node[141].veinsmobility 	startTime 	423.1
scalar RSUExampleScenario.node[141].veinsmobility 	totalTime 	346
scalar RSUExampleScenario.node[141].veinsmobility 	stopTime 	769.2
scalar RSUExampleScenario.node[141].veinsmobility 	minSpeed 	0.2523574511956
scalar RSUExampleScenario.node[141].veinsmobility 	maxSpeed 	13.999942157974
scalar RSUExampleScenario.node[141].veinsmobility 	totalDistance 	3409.5319454926
scalar RSUExampleScenario.node[141].veinsmobility 	totalCO2Emission 	764.45410183128
scalar RSUExampleScenario.node[142].veinsmobility 	startTime 	426.1
scalar RSUExampleScenario.node[142].veinsmobility 	totalTime 	346.7
scalar RSUExampleScenario.node[142].veinsmobility 	stopTime 	772.9
scalar RSUExampleScenario.node[142].veinsmobility 	minSpeed 	0.25836381773255
scalar RSUExampleScenario.node[142].veinsmobility 	maxSpeed 	13.999982116071
scalar RSUExampleScenario.node[142].veinsmobility 	totalDistance 	3413.8807769123
scalar RSUExampleScenario.node[142].veinsmobility 	totalCO2Emission 	773.91122894429
scalar RSUExampleScenario.node[143].veinsmobility 	startTime 	429.1
scalar RSUExampleScenario.node[143].veinsmobility 	totalTime 	347.4
scalar RSUExampleScenario.node[143].veinsmobility 	stopTime 	776.6
scalar RSUExampleScenario.node[143].veinsmobility 	minSpeed 	0.2536234045641
scalar RSUExampleScenario.node[143].veinsmobility 	maxSpeed 	13.999986852133
scalar RSUExampleScenario.node[143].veinsmobility 	totalDistance 	3409.848817928
scalar RSUExampleScenario.node[143].veinsmobility 	totalCO2Emission 	770.09441596355
scalar RSUExampleScenario.node[144].veinsmobility 	startTime 	432.1
scalar RSUExampleScenario.node[144].veinsmobility 	totalTime 	348.1
scalar RSUExampleScenario.node[144].veinsmobility 	stopTime 	780.3
scalar RSUExampleScenario.node[144].veinsmobility 	minSpeed 	0.25740020202426
scalar RSUExampleScenario.node[144].veinsmobility 	maxSpeed 	13.999941162097
scalar RSUExampleScenario.node[144].veinsmobility 	totalDistance 	3413.7637549526
scalar RSUExampleScenario.node[144].veinsmobility 	totalCO2Emission 	770.04462676219
scalar RSUExampleScenario.node[145].veinsmobility 	startTime 	435.1
scalar RSUExampleScenario.node[145].veinsmobility 	totalTime 	348.8
scalar RSUExampleScenario.node[145].veinsmobility 	stopTime 	784
scalar RSUExampleScenario.node[145].veinsmobility 	minSpeed 	0.24791668937658
scalar RSUExampleScenario.node[145].veinsmobility 	maxSpeed 	13.999853741077
scalar RSUExampleScenario.node[145].veinsmobility 	totalDistance 	3410.1828687966
scalar RSUExampleScenario.node[145].veinsmobility 	totalCO2Emission 	770.3633501547
scalar RSUExampleScenario.node[146].veinsmobility 	startTime 	438.1
scalar RSUExampleScenario.node[146].veinsmobility 	totalTime 	349.4
scalar RSUExampleScenario.node[146].veinsmobility 	stopTime 	787.6
scalar RSUExampleScenario.node[146].veinsmobility 	minSpeed 	0.25196108052623
scalar RSUExampleScenario.node[146].veinsmobility 	maxSpeed 	13.999963935486
scalar RSUExampleScenario.node[146].veinsmobility 	totalDistance 	3413.8682348378
scalar RSUExampleScenario.node[146].veinsmobility 	totalCO2Emission 	772.99813986955
scalar RSUExampleScenario.node[147].veinsmobility 	startTime 	441.1
scalar RSUExampleScenario.node[147].veinsmobility 	totalTime 	350
scalar RSUExampleScenario.node[147].veinsmobility 	stopTime 	791.2
scalar RSUExampleScenario.node[147].veinsmobility 	minSpeed 	0.25029717559158
scalar RSUExampleScenario.node[147].veinsmobility 	maxSpeed 	13.999980264972
scalar RSUExampleScenario.node[147].veinsmobility 	totalDistance 	3410.2049956778
scalar RSUExampleScenario.node[147].veinsmobility 	totalCO2Emission 	776.89749869945
scalar RSUExampleScenario.node[148].veinsmobility 	startTime 	444.1
scalar RSUExampleScenario.node[148].veinsmobility 	totalTime 	350.7
scalar RSUExampleScenario.node[148].veinsmobility 	stopTime 	794.9
scalar RSUExampleScenario.node[148].veinsmobility 	minSpeed 	0.25137617700035
scalar RSUExampleScenario.node[148].veinsmobility 	maxSpeed 	13.999961601552
scalar RSUExampleScenario.node[148].veinsmobility 	totalDistance 	3414.3761133983
scalar RSUExampleScenario.node[148].veinsmobility 	totalCO2Emission 	772.0698789906
scalar RSUExampleScenario.node[149].veinsmobility 	startTime 	447.1
scalar RSUExampleScenario.node[149].veinsmobility 	totalTime 	351.4
scalar RSUExampleScenario.node[149].veinsmobility 	stopTime 	798.6
scalar RSUExampleScenario.node[149].veinsmobility 	minSpeed 	0.25087632484687
scalar RSUExampleScenario.node[149].veinsmobility 	maxSpeed 	13.999987901372
scalar RSUExampleScenario.node[149].veinsmobility 	totalDistance 	3410.1007200357
scalar RSUExampleScenario.node[149].veinsmobility 	totalCO2Emission 	772.16349999384
scalar RSUExampleScenario.node[150].veinsmobility 	startTime 	450.1
scalar RSUExampleScenario.node[150].veinsmobility 	totalTime 	352.1
scalar RSUExampleScenario.node[150].veinsmobility 	stopTime 	802.3
scalar RSUExampleScenario.node[150].veinsmobility 	minSpeed 	0.25959675614955
scalar RSUExampleScenario.node[150].veinsmobility 	maxSpeed 	13.999955191247
scalar RSUExampleScenario.node[150].veinsmobility 	totalDistance 	3413.8666212669
scalar RSUExampleScenario.node[150].veinsmobility 	totalCO2Emission 	773.21519716199
scalar RSUExampleScenario.node[151].veinsmobility 	startTime 	453.1
scalar RSUExampleScenario.node[151].veinsmobility 	totalTime 	352.7
scalar RSUExampleScenario.node[151].veinsmobility 	stopTime 	805.9
scalar RSUExampleScenario.node[151].veinsmobility 	minSpeed 	0.25344596731476
scalar RSUExampleScenario.node[151].veinsmobility 	maxSpeed 	13.999976732396
scalar RSUExampleScenario.node[151].veinsmobility 	totalDistance 	3409.7851039113
scalar RSUExampleScenario.node[151].veinsmobility 	totalCO2Emission 	774.05148204463
scalar RSUExampleScenario.node[152].veinsmobility 	startTime 	456.1
scalar RSUExampleScenario.node[152].veinsmobility 	totalTime 	353.4
scalar RSUExampleScenario.node[152].veinsmobility 	stopTime 	809.6
scalar RSUExampleScenario.node[152].veinsmobility 	minSpeed 	0.25706572462036
scalar RSUExampleScenario.node[152].veinsmobility 	maxSpeed 	13.999995626519
scalar RSUExampleScenario.node[152].veinsmobility 	totalDistance 	3414.2096324702
[...]
scalar RSUExampleScenario.node[628].veinsmobility 	totalCO2Emission 	324.15410401691
scalar RSUExampleScenario.node[629].veinsmobility 	startTime 	1887.1
scalar RSUExampleScenario.node[629].veinsmobility 	totalTime 	112.8
scalar RSUExampleScenario.node[629].veinsmobility 	stopTime 	2000
scalar RSUExampleScenario.node[629].veinsmobility 	minSpeed 	0.25271297569317
scalar RSUExampleScenario.node[629].veinsmobility 	maxSpeed 	13.999861060269
scalar RSUExampleScenario.node[629].veinsmobility 	totalDistance 	1363.5401279437
scalar RSUExampleScenario.node[629].veinsmobility 	totalCO2Emission 	316.99906896146
scalar RSUExampleScenario.node[630].veinsmobility 	startTime 	1890.1
scalar RSUExampleScenario.node[630].veinsmobility 	totalTime 	109.8
scalar RSUExampleScenario.node[630].veinsmobility 	stopTime 	2000
scalar RSUExampleScenario.node[630].veinsmobility 	minSpeed 	0.25603276754334
scalar RSUExampleScenario.node[630].veinsmobility 	maxSpeed 	13.999902894406
scalar RSUExampleScenario.node[630].veinsmobility 	totalDistance 	1321.9714179063
scalar RSUExampleScenario.node[630].veinsmobility 	totalCO2Emission 	311.21964038492
scalar RSUExampleScenario.node[631].veinsmobility 	startTime 	1893.1
scalar RSUExampleScenario.node[631].veinsmobility 	totalTime 	106.8
scalar RSUExampleScenario.node[631].veinsmobility 	stopTime 	2000
scalar RSUExampleScenario.node[631].veinsmobility 	minSpeed 	0.25709863773524
scalar RSUExampleScenario.node[631].veinsmobility 	maxSpeed 	13.999946745117
scalar RSUExampleScenario.node[631].veinsmobility 	totalDistance 	1280.6773078381
scalar RSUExampleScenario.node[631].veinsmobility 	totalCO2Emission 	302.33439917437
scalar RSUExampleScenario.node[632].veinsmobility 	startTime 	1896.1
scalar RSUExampleScenario.node[632].veinsmobility 	totalTime 	103.8
scalar RSUExampleScenario.node[632].veinsmobility 	stopTime 	2000
scalar RSUExampleScenario.node[632].veinsmobility 	minSpeed 	0.25547441454185
scalar RSUExampleScenario.node[632].veinsmobility 	maxSpeed 	13.999763853126
scalar RSUExampleScenario.node[632].veinsmobility 	totalDistance 	1239.051629168
scalar RSUExampleScenario.node[632].veinsmobility 	totalCO2Emission 	298.63564128661
scalar RSUExampleScenario.node[633].veinsmobility 	startTime 	1899.1
scalar RSUExampleScenario.node[633].veinsmobility 	totalTime 	100.8
scalar RSUExampleScenario.node[633].veinsmobility 	stopTime 	2000
scalar RSUExampleScenario.node[633].veinsmobility 	minSpeed 	0.25840755472076
scalar RSUExampleScenario.node[633].veinsmobility 	maxSpeed 	13.999704445943
scalar RSUExampleScenario.node[633].veinsmobility 	totalDistance 	1196.7238133085
scalar RSUExampleScenario.node[633].veinsmobility 	totalCO2Emission 	287.15910149044
scalar RSUExampleScenario.node[634].veinsmobility 	startTime 	1902.1
scalar RSUExampleScenario.node[634].veinsmobility 	totalTime 	97.8
scalar RSUExampleScenario.node[634].veinsmobility 	stopTime 	2000
scalar RSUExampleScenario.node[634].veinsmobility 	minSpeed 	0.2502706454799
scalar RSUExampleScenario.node[634].veinsmobility 	maxSpeed 	13.999687400891
scalar RSUExampleScenario.node[634].veinsmobility 	totalDistance 	1154.4327832527
scalar RSUExampleScenario.node[634].veinsmobility 	totalCO2Emission 	281.79586935931
scalar RSUExampleScenario.node[635].veinsmobility 	startTime 	1905.1
scalar RSUExampleScenario.node[635].veinsmobility 	totalTime 	94.8
scalar RSUExampleScenario.node[635].veinsmobility 	stopTime 	2000
scalar RSUExampleScenario.node[635].veinsmobility 	minSpeed 	0.25280004042527
scalar RSUExampleScenario.node[635].veinsmobility 	maxSpeed 	13.999990175921
scalar RSUExampleScenario.node[635].veinsmobility 	totalDistance 	1112.816088429
scalar RSUExampleScenario.node[635].veinsmobility 	totalCO2Emission 	276.1098876388
scalar RSUExampleScenario.node[636].veinsmobility 	startTime 	1908.1
scalar RSUExampleScenario.node[636].veinsmobility 	totalTime 	91.8
scalar RSUExampleScenario.node[636].veinsmobility 	stopTime 	2000
scalar RSUExampleScenario.node[636].veinsmobility 	minSpeed 	0.25065946578258
scalar RSUExampleScenario.node[636].veinsmobility 	maxSpeed 	13.999316516754
scalar RSUExampleScenario.node[636].veinsmobility 	totalDistance 	1068.8233214656
scalar RSUExampleScenario.node[636].veinsmobility 	totalCO2Emission 	266.15869796479
scalar RSUExampleScenario.node[637].veinsmobility 	startTime 	1911.1
scalar RSUExampleScenario.node[637].veinsmobility 	totalTime 	88.8
scalar RSUExampleScenario.node[637].veinsmobility 	stopTime 	2000
scalar RSUExampleScenario.node[637].veinsmobility 	minSpeed 	0.25839929469395
scalar RSUExampleScenario.node[637].veinsmobility 	maxSpeed 	13.999280398272
scalar RSUExampleScenario.node[637].veinsmobility 	totalDistance 	1028.3757058724
scalar RSUExampleScenario.node[637].veinsmobility 	totalCO2Emission 	259.70602925914
scalar RSUExampleScenario.node[638].veinsmobility 	startTime 	1914.1
scalar RSUExampleScenario.node[638].veinsmobility 	totalTime 	85.8
scalar RSUExampleScenario.node[638].veinsmobility 	stopTime 	2000
scalar RSUExampleScenario.node[638].veinsmobility 	minSpeed 	0.25399883321207
scalar RSUExampleScenario.node[638].veinsmobility 	maxSpeed 	13.999948633688
scalar RSUExampleScenario.node[638].veinsmobility 	totalDistance 	986.22374324716
scalar RSUExampleScenario.node[638].veinsmobility 	totalCO2Emission 	252.4695181856
scalar RSUExampleScenario.node[639].veinsmobility 	startTime 	1917.1
scalar RSUExampleScenario.node[639].veinsmobility 	totalTime 	82.8
scalar RSUExampleScenario.node[639].veinsmobility 	stopTime 	2000
scalar RSUExampleScenario.node[639].veinsmobility 	minSpeed 	0.2551073125496
scalar RSUExampleScenario.node[639].veinsmobility 	maxSpeed 	13.999048842809
scalar RSUExampleScenario.node[639].veinsmobility 	totalDistance 	953.37542946069
scalar RSUExampleScenario.node[639].veinsmobility 	totalCO2Emission 	232.19313058105
scalar RSUExampleScenario.node[640].veinsmobility 	startTime 	1920.1
scalar RSUExampleScenario.node[640].veinsmobility 	totalTime 	79.8
scalar RSUExampleScenario.node[640].veinsmobility 	stopTime 	2000
scalar RSUExampleScenario.node[640].veinsmobility 	minSpeed 	0.25826685962849
scalar RSUExampleScenario.node[640].veinsmobility 	maxSpeed 	13.999855029343
scalar RSUExampleScenario.node[640].veinsmobility 	totalDistance 	937.50369590603
scalar RSUExampleScenario.node[640].veinsmobility 	totalCO2Emission 	223.5569836788
scalar RSUExampleScenario.node[641].veinsmobility 	startTime 	1923.1
scalar RSUExampleScenario.node[641].veinsmobility 	totalTime 	76.8
scalar RSUExampleScenario.node[641].veinsmobility 	stopTime 	2000
scalar RSUExampleScenario.node[641].veinsmobility 	minSpeed 	0.25331411851593
scalar RSUExampleScenario.node[641].veinsmobility 	maxSpeed 	13.999641375577
scalar RSUExampleScenario.node[641].veinsmobility 	totalDistance 	913.68165050175
scalar RSUExampleScenario.node[641].veinsmobility 	totalCO2Emission 	219.8865869586
scalar RSUExampleScenario.node[642].veinsmobility 	startTime 	1926.1
scalar RSUExampleScenario.node[642].veinsmobility 	totalTime 	73.8
scalar RSUExampleScenario.node[642].veinsmobility 	stopTime 	2000
scalar RSUExampleScenario.node[642].veinsmobility 	minSpeed 	0.25723122067493
scalar RSUExampleScenario.node[642].veinsmobility 	maxSpeed 	13.998856524611
scalar RSUExampleScenario.node[642].veinsmobility 	totalDistance 	874.09126536466
scalar RSUExampleScenario.node[642].veinsmobility 	totalCO2Emission 	215.21055657025
scalar RSUExampleScenario.node[643].veinsmobility 	startTime 	1929.1
scalar RSUExampleScenario.node[643].veinsmobility 	totalTime 	70.8
scalar RSUExampleScenario.node[643].veinsmobility 	stopTime 	2000
scalar RSUExampleScenario.node[643].veinsmobility 	minSpeed 	0.25759224896645
scalar RSUExampleScenario.node[643].veinsmobility 	maxSpeed 	13.999837821783
scalar RSUExampleScenario.node[643].veinsmobility 	totalDistance 	832.41264592904
scalar RSUExampleScenario.node[643].veinsmobility 	totalCO2Emission 	206.46725568644
scalar RSUExampleScenario.node[644].veinsmobility 	startTime 	1932.1
scalar RSUExampleScenario.node[644].veinsmobility 	totalTime 	67.8
scalar RSUExampleScenario.node[644].veinsmobility 	stopTime 	2000
scalar RSUExampleScenario.node[644].veinsmobility 	minSpeed 	0.25807388402824
scalar RSUExampleScenario.node[644].veinsmobility 	maxSpeed 	13.999964561851
scalar RSUExampleScenario.node[644].veinsmobility 	totalDistance 	790.65022362393
scalar RSUExampleScenario.node[644].veinsmobility 	totalCO2Emission 	199.15838359953
scalar RSUExampleScenario.node[645].veinsmobility 	startTime 	1935.1
scalar RSUExampleScenario.node[645].veinsmobility 	totalTime 	64.8
scalar RSUExampleScenario.node[645].veinsmobility 	stopTime 	2000
scalar RSUExampleScenario.node[645].veinsmobility 	minSpeed 	0.25306729684467
scalar RSUExampleScenario.node[645].veinsmobility 	maxSpeed 	13.999626671269
scalar RSUExampleScenario.node[645].veinsmobility 	totalDistance 	747.62388667727
scalar RSUExampleScenario.node[645].veinsmobility 	totalCO2Emission 	193.44923825011
scalar RSUExampleScenario.node[646].veinsmobility 	startTime 	1938.1
scalar RSUExampleScenario.node[646].veinsmobility 	totalTime 	61.8
scalar RSUExampleScenario.node[646].veinsmobility 	stopTime 	2000
scalar RSUExampleScenario.node[646].veinsmobility 	minSpeed 	0.24868594667059
scalar RSUExampleScenario.node[646].veinsmobility 	maxSpeed 	13.999378770944
scalar RSUExampleScenario.node[646].veinsmobility 	totalDistance 	706.54230349181
scalar RSUExampleScenario.node[646].veinsmobility 	totalCO2Emission 	184.93337441088
scalar RSUExampleScenario.node[647].veinsmobility 	startTime 	1941.1
scalar RSUExampleScenario.node[647].veinsmobility 	totalTime 	58.8
scalar RSUExampleScenario.node[647].veinsmobility 	stopTime 	2000
scalar RSUExampleScenario.node[647].veinsmobility 	minSpeed 	0.24777777393884
scalar RSUExampleScenario.node[647].veinsmobility 	maxSpeed 	13.999309822808
scalar RSUExampleScenario.node[647].veinsmobility 	totalDistance 	664.06854903418
scalar RSUExampleScenario.node[647].veinsmobility 	totalCO2Emission 	177.5074193692
scalar RSUExampleScenario.node[648].veinsmobility 	startTime 	1944.1
scalar RSUExampleScenario.node[648].veinsmobility 	totalTime 	55.8
scalar RSUExampleScenario.node[648].veinsmobility 	stopTime 	2000
scalar RSUExampleScenario.node[648].veinsmobility 	minSpeed 	0.25508983698417
scalar RSUExampleScenario.node[648].veinsmobility 	maxSpeed 	13.998742494765
scalar RSUExampleScenario.node[648].veinsmobility 	totalDistance 	623.26471025701
scalar RSUExampleScenario.node[648].veinsmobility 	totalCO2Emission 	170.93664363442
scalar RSUExampleScenario.node[649].veinsmobility 	startTime 	1947.1
scalar RSUExampleScenario.node[649].veinsmobility 	totalTime 	52.8
scalar RSUExampleScenario.node[649].veinsmobility 	stopTime 	2000
scalar RSUExampleScenario.node[649].veinsmobility 	minSpeed 	0.2553543944438
scalar RSUExampleScenario.node[649].veinsmobility 	maxSpeed 	13.997811219613
scalar RSUExampleScenario.node[649].veinsmobility 	totalDistance 	581.35789487444
scalar RSUExampleScenario.node[649].veinsmobility 	totalCO2Emission 	164.55934040277
scalar RSUExampleScenario.node[650].veinsmobility 	startTime 	1950.1
scalar RSUExampleScenario.node[650].veinsmobility 	totalTime 	49.8
scalar RSUExampleScenario.node[650].veinsmobility 	stopTime 	2000
scalar RSUExampleScenario.node[650].veinsmobility 	minSpeed 	0.2474309774111
scalar RSUExampleScenario.node[650].veinsmobility 	maxSpeed 	13.999299079974
scalar RSUExampleScenario.node[650].veinsmobility 	totalDistance 	538.98461073727
scalar RSUExampleScenario.node[650].veinsmobility 	totalCO2Emission 	159.17183094144
scalar RSUExampleScenario.node[651].veinsmobility 	startTime 	1953.1
scalar RSUExampleScenario.node[651].veinsmobility 	totalTime 	46.8
scalar RSUExampleScenario.node[651].veinsmobility 	stopTime 	2000
scalar RSUExampleScenario.node[651].veinsmobility 	minSpeed 	0.24976210955088
scalar RSUExampleScenario.node[651].veinsmobility 	maxSpeed 	13.998637505178
scalar RSUExampleScenario.node[651].veinsmobility 	totalDistance 	497.96512783528
scalar RSUExampleScenario.node[651].veinsmobility 	totalCO2Emission 	151.54185690756
scalar RSUExampleScenario.node[652].veinsmobility 	startTime 	1956.1
scalar RSUExampleScenario.node[652].veinsmobility 	totalTime 	43.8
scalar RSUExampleScenario.node[652].veinsmobility 	stopTime 	2000
scalar RSUExampleScenario.node[652].veinsmobility 	minSpeed 	0.25670639332151
scalar RSUExampleScenario.node[652].veinsmobility 	maxSpeed 	13.998770133369
scalar RSUExampleScenario.node[652].veinsmobility 	totalDistance 	455.62320517331
scalar RSUExampleScenario.node[652].veinsmobility 	totalCO2Emission 	144.09870009495
scalar RSUExampleScenario.node[653].veinsmobility 	startTime 	1959.1
scalar RSUExampleScenario.node[653].veinsmobility 	totalTime 	40.8
scalar RSUExampleScenario.node[653].veinsmobility 	stopTime 	2000
scalar RSUExampleScenario.node[653].veinsmobility 	minSpeed 	0.25121381969028
scalar RSUExampleScenario.node[653].veinsmobility 	maxSpeed 	13.999736456575
scalar RSUExampleScenario.node[653].veinsmobility 	totalDistance 	413.26285956894
scalar RSUExampleScenario.node[653].veinsmobility 	totalCO2Emission 	136.09409273421
scalar RSUExampleScenario.node[654].veinsmobility 	startTime 	1962.1
scalar RSUExampleScenario.node[654].veinsmobility 	totalTime 	37.8
scalar RSUExampleScenario.node[654].veinsmobility 	stopTime 	2000
scalar RSUExampleScenario.node[654].veinsmobility 	minSpeed 	0.25445112522831
scalar RSUExampleScenario.node[654].veinsmobility 	maxSpeed 	13.999776553845
scalar RSUExampleScenario.node[654].veinsmobility 	totalDistance 	371.29709585803
scalar RSUExampleScenario.node[654].veinsmobility 	totalCO2Emission 	129.10496417744
scalar RSUExampleScenario.node[655].veinsmobility 	startTime 	1965.1
scalar RSUExampleScenario.node[655].veinsmobility 	totalTime 	34.8
scalar RSUExampleScenario.node[655].veinsmobility 	stopTime 	2000
scalar RSUExampleScenario.node[655].veinsmobility 	minSpeed 	0.2543671433751
scalar RSUExampleScenario.node[655].veinsmobility 	maxSpeed 	13.995425860658
scalar RSUExampleScenario.node[655].veinsmobility 	totalDistance 	328.94987610169
scalar RSUExampleScenario.node[655].veinsmobility 	totalCO2Emission 	122.95501699078
scalar RSUExampleScenario.node[656].veinsmobility 	startTime 	1968.1
scalar RSUExampleScenario.node[656].veinsmobility 	totalTime 	31.8
scalar RSUExampleScenario.node[656].veinsmobility 	stopTime 	2000
scalar RSUExampleScenario.node[656].veinsmobility 	minSpeed 	0.25441803691932
scalar RSUExampleScenario.node[656].veinsmobility 	maxSpeed 	13.996304389217
scalar RSUExampleScenario.node[656].veinsmobility 	totalDistance 	286.88860538426
scalar RSUExampleScenario.node[656].veinsmobility 	totalCO2Emission 	115.01379331838
scalar RSUExampleScenario.node[657].veinsmobility 	startTime 	1971.1
scalar RSUExampleScenario.node[657].veinsmobility 	totalTime 	28.8
scalar RSUExampleScenario.node[657].veinsmobility 	stopTime 	2000
scalar RSUExampleScenario.node[657].veinsmobility 	minSpeed 	0.2571510077517
scalar RSUExampleScenario.node[657].veinsmobility 	maxSpeed 	13.889427970704
scalar RSUExampleScenario.node[657].veinsmobility 	totalDistance 	248.10507437206
scalar RSUExampleScenario.node[657].veinsmobility 	totalCO2Emission 	99.388467556546
scalar RSUExampleScenario.node[658].veinsmobility 	startTime 	1974.1
scalar RSUExampleScenario.node[658].veinsmobility 	totalTime 	25.8
scalar RSUExampleScenario.node[658].veinsmobility 	stopTime 	2000
scalar RSUExampleScenario.node[658].veinsmobility 	minSpeed 	0.25704181305552
scalar RSUExampleScenario.node[658].veinsmobility 	maxSpeed 	13.885981050574
scalar RSUExampleScenario.node[658].veinsmobility 	totalDistance 	225.97424133933
scalar RSUExampleScenario.node[658].veinsmobility 	totalCO2Emission 	82.228615027365
scalar RSUExampleScenario.node[659].veinsmobility 	startTime 	1977.1
scalar RSUExampleScenario.node[659].veinsmobility 	totalTime 	22.8
scalar RSUExampleScenario.node[659].veinsmobility 	stopTime 	2000
scalar RSUExampleScenario.node[659].veinsmobility 	minSpeed 	0.25661039887136
scalar RSUExampleScenario.node[659].veinsmobility 	maxSpeed 	13.886511451071
scalar RSUExampleScenario.node[659].veinsmobility 	totalDistance 	207.35136794458
scalar RSUExampleScenario.node[659].veinsmobility 	totalCO2Emission 	78.601474624026
scalar RSUExampleScenario.node[660].veinsmobility 	startTime 	1980.1
scalar RSUExampleScenario.node[660].veinsmobility 	totalTime 	19.8
scalar RSUExampleScenario.node[660].veinsmobility 	stopTime 	2000
scalar RSUExampleScenario.node[660].veinsmobility 	minSpeed 	0.25355959513853
scalar RSUExampleScenario.node[660].veinsmobility 	maxSpeed 	13.889063243014
scalar RSUExampleScenario.node[660].veinsmobility 	totalDistance 	173.68169097163
scalar RSUExampleScenario.node[660].veinsmobility 	totalCO2Emission 	75.590351476656
scalar RSUExampleScenario.node[661].veinsmobility 	startTime 	1983.1
scalar RSUExampleScenario.node[661].veinsmobility 	totalTime 	16.8
scalar RSUExampleScenario.node[661].veinsmobility 	stopTime 	2000
scalar RSUExampleScenario.node[661].veinsmobility 	minSpeed 	0.25202332569333
scalar RSUExampleScenario.node[661].veinsmobility 	maxSpeed 	13.886012605098
scalar RSUExampleScenario.node[661].veinsmobility 	totalDistance 	137.93875780987
scalar RSUExampleScenario.node[661].veinsmobility 	totalCO2Emission 	58.393185167445
scalar RSUExampleScenario.node[662].veinsmobility 	startTime 	1986.1
scalar RSUExampleScenario.node[662].veinsmobility 	totalTime 	13.8
scalar RSUExampleScenario.node[662].veinsmobility 	stopTime 	2000
scalar RSUExampleScenario.node[662].veinsmobility 	minSpeed 	0.25357702829549
scalar RSUExampleScenario.node[662].veinsmobility 	maxSpeed 	13.863813564875
scalar RSUExampleScenario.node[662].veinsmobility 	totalDistance 	116.87967308585
scalar RSUExampleScenario.node[662].veinsmobility 	totalCO2Emission 	42.581545549422
scalar RSUExampleScenario.node[663].veinsmobility 	startTime 	1989.1
scalar RSUExampleScenario.node[663].veinsmobility 	totalTime 	10.8
scalar RSUExampleScenario.node[663].veinsmobility 	stopTime 	2000
scalar RSUExampleScenario.node[663].veinsmobility 	minSpeed 	0.25194777422724
scalar RSUExampleScenario.node[663].veinsmobility 	maxSpeed 	13.874255455472
scalar RSUExampleScenario.node[663].veinsmobility 	totalDistance 	96.534822075966
scalar RSUExampleScenario.node[663].veinsmobility 	totalCO2Emission 	39.262862093375
scalar RSUExampleScenario.node[664].veinsmobility 	startTime 	1992.1
scalar RSUExampleScenario.node[664].veinsmobility 	totalTime 	7.8
scalar RSUExampleScenario.node[664].veinsmobility 	stopTime 	2000
scalar RSUExampleScenario.node[664].veinsmobility 	minSpeed 	0.25185687083681
scalar RSUExampleScenario.node[664].veinsmobility 	maxSpeed 	13.863628764972
scalar RSUExampleScenario.node[664].veinsmobility 	totalDistance 	62.053642149914
scalar RSUExampleScenario.node[664].veinsmobility 	totalCO2Emission 	35.817895105127
scalar RSUExampleScenario.node[665].veinsmobility 	startTime 	1995.1
scalar RSUExampleScenario.node[665].veinsmobility 	totalTime 	4.8
scalar RSUExampleScenario.node[665].veinsmobility 	stopTime 	2000
scalar RSUExampleScenario.node[665].veinsmobility 	minSpeed 	0.25221860469319
scalar RSUExampleScenario.node[665].veinsmobility 	maxSpeed 	9.6672175790979
scalar RSUExampleScenario.node[665].veinsmobility 	totalDistance 	24.109131584307
scalar RSUExampleScenario.node[665].veinsmobility 	totalCO2Emission 	17.974788761561
scalar RSUExampleScenario.node[666].veinsmobility 	startTime 	1998.1
scalar RSUExampleScenario.node[666].veinsmobility 	totalTime 	1.8
scalar RSUExampleScenario.node[666].veinsmobility 	stopTime 	2000
scalar RSUExampleScenario.node[666].veinsmobility 	minSpeed 	0.24910024186433
scalar RSUExampleScenario.node[666].veinsmobility 	maxSpeed 	3.892919058029
scalar RSUExampleScenario.node[666].veinsmobility 	totalDistance 	3.8139770421638
scalar RSUExampleScenario.node[666].veinsmobility 	totalCO2Emission 	3.9877780734925
