version 2
run statisticLeach-210-20150323-04:49:12-11024
attr c 28
attr configname statisticLeach
attr datetime 20150323-04:49:12
attr experiment statisticLeach
attr inifile omnetpp.ini
attr iterationvars "$p=1/20, $c=28"
attr iterationvars2 "$p=1/20, $c=28, $repetition=0"
attr measurement "$p=1/20, $c=28"
attr network RSUExampleScenario
attr p 1/20
attr processid 11024
attr repetition 0
attr replication #0
attr resultdir results
attr runnumber 210
attr seedset 210

scalar . 	c 	28
scalar RSUExampleScenario.node[0].appl 	meanClusterNodes 	3.5
scalar RSUExampleScenario.node[0].appl 	meanClusterHeadUtility 	18.480618501565
scalar RSUExampleScenario.node[0].appl 	NumberofCH 	0.054054054054054
scalar RSUExampleScenario.node[0].appl 	NumberofON 	0.35135135135135
scalar RSUExampleScenario.node[0].appl 	NumberofFN 	0.59459459459459
scalar RSUExampleScenario.node[0].veinsmobility 	startTime 	0.1
scalar RSUExampleScenario.node[0].veinsmobility 	totalTime 	449.9
scalar RSUExampleScenario.node[0].veinsmobility 	stopTime 	450
scalar RSUExampleScenario.node[0].veinsmobility 	minSpeed 	0
scalar RSUExampleScenario.node[0].veinsmobility 	maxSpeed 	13.999999646137
scalar RSUExampleScenario.node[0].veinsmobility 	totalDistance 	3132.6472552681
scalar RSUExampleScenario.node[0].veinsmobility 	totalCO2Emission 	838.04487202923
scalar RSUExampleScenario.node[1].appl 	meanClusterNodes 	6.5
scalar RSUExampleScenario.node[1].appl 	meanClusterHeadUtility 	9.0104535043575
scalar RSUExampleScenario.node[1].appl 	NumberofCH 	0.10810810810811
scalar RSUExampleScenario.node[1].appl 	NumberofON 	0.10810810810811
scalar RSUExampleScenario.node[1].appl 	NumberofFN 	0.78378378378378
scalar RSUExampleScenario.node[1].veinsmobility 	startTime 	2.5
scalar RSUExampleScenario.node[1].veinsmobility 	totalTime 	447.5
scalar RSUExampleScenario.node[1].veinsmobility 	stopTime 	450
scalar RSUExampleScenario.node[1].veinsmobility 	minSpeed 	0
scalar RSUExampleScenario.node[1].veinsmobility 	maxSpeed 	13.999979234438
scalar RSUExampleScenario.node[1].veinsmobility 	totalDistance 	3080.462955937
scalar RSUExampleScenario.node[1].veinsmobility 	totalCO2Emission 	828.3707636348
scalar RSUExampleScenario.node[10].appl 	meanClusterNodes 	4
scalar RSUExampleScenario.node[10].appl 	meanClusterHeadUtility 	19.10568052101
scalar RSUExampleScenario.node[10].appl 	NumberofCH 	0.054054054054054
scalar RSUExampleScenario.node[10].appl 	NumberofON 	0.24324324324324
scalar RSUExampleScenario.node[10].appl 	NumberofFN 	0.7027027027027
scalar RSUExampleScenario.node[10].veinsmobility 	startTime 	24.2
scalar RSUExampleScenario.node[10].veinsmobility 	totalTime 	425.8
scalar RSUExampleScenario.node[10].veinsmobility 	stopTime 	450
scalar RSUExampleScenario.node[10].veinsmobility 	minSpeed 	0
scalar RSUExampleScenario.node[10].veinsmobility 	maxSpeed 	13.999932686819
scalar RSUExampleScenario.node[10].veinsmobility 	totalDistance 	2794.9789620213
scalar RSUExampleScenario.node[10].veinsmobility 	totalCO2Emission 	758.11891214918
scalar RSUExampleScenario.node[11].appl 	meanClusterNodes 	5.5
scalar RSUExampleScenario.node[11].appl 	meanClusterHeadUtility 	17.669284522461
scalar RSUExampleScenario.node[11].appl 	NumberofCH 	0.054054054054054
scalar RSUExampleScenario.node[11].appl 	NumberofON 	0.32432432432432
scalar RSUExampleScenario.node[11].appl 	NumberofFN 	0.62162162162162
scalar RSUExampleScenario.node[11].veinsmobility 	startTime 	26.6
scalar RSUExampleScenario.node[11].veinsmobility 	totalTime 	423.4
scalar RSUExampleScenario.node[11].veinsmobility 	stopTime 	450
scalar RSUExampleScenario.node[11].veinsmobility 	minSpeed 	0
scalar RSUExampleScenario.node[11].veinsmobility 	maxSpeed 	13.999955715034
scalar RSUExampleScenario.node[11].veinsmobility 	totalDistance 	2752.6968923079
scalar RSUExampleScenario.node[11].veinsmobility 	totalCO2Emission 	750.58416885677
scalar RSUExampleScenario.node[12].appl 	meanClusterNodes 	4.5
scalar RSUExampleScenario.node[12].appl 	meanClusterHeadUtility 	19.427810660168
scalar RSUExampleScenario.node[12].appl 	NumberofCH 	0.054054054054054
scalar RSUExampleScenario.node[12].appl 	NumberofON 	0.54054054054054
scalar RSUExampleScenario.node[12].appl 	NumberofFN 	0.40540540540541
scalar RSUExampleScenario.node[12].veinsmobility 	startTime 	29
scalar RSUExampleScenario.node[12].veinsmobility 	totalTime 	421
scalar RSUExampleScenario.node[12].veinsmobility 	stopTime 	450
scalar RSUExampleScenario.node[12].veinsmobility 	minSpeed 	0
scalar RSUExampleScenario.node[12].veinsmobility 	maxSpeed 	13.999964132379
scalar RSUExampleScenario.node[12].veinsmobility 	totalDistance 	2721.9948187453
scalar RSUExampleScenario.node[12].veinsmobility 	totalCO2Emission 	743.08264290465
scalar RSUExampleScenario.node[13].appl 	meanClusterNodes 	4
scalar RSUExampleScenario.node[13].appl 	meanClusterHeadUtility 	18.155327261515
scalar RSUExampleScenario.node[13].appl 	NumberofCH 	0.054054054054054
scalar RSUExampleScenario.node[13].appl 	NumberofON 	0.56756756756757
scalar RSUExampleScenario.node[13].appl 	NumberofFN 	0.37837837837838
scalar RSUExampleScenario.node[13].veinsmobility 	startTime 	31.4
scalar RSUExampleScenario.node[13].veinsmobility 	totalTime 	418.6
scalar RSUExampleScenario.node[13].veinsmobility 	stopTime 	450
scalar RSUExampleScenario.node[13].veinsmobility 	minSpeed 	0
scalar RSUExampleScenario.node[13].veinsmobility 	maxSpeed 	13.999935762924
scalar RSUExampleScenario.node[13].veinsmobility 	totalDistance 	2680.3842896815
scalar RSUExampleScenario.node[13].veinsmobility 	totalCO2Emission 	737.3510238959
scalar RSUExampleScenario.node[14].appl 	meanClusterNodes 	4
scalar RSUExampleScenario.node[14].appl 	meanClusterHeadUtility 	8.3118821082327
scalar RSUExampleScenario.node[14].appl 	NumberofCH 	0.10810810810811
scalar RSUExampleScenario.node[14].appl 	NumberofON 	0.43243243243243
scalar RSUExampleScenario.node[14].appl 	NumberofFN 	0.45945945945946
scalar RSUExampleScenario.node[14].veinsmobility 	startTime 	33.8
scalar RSUExampleScenario.node[14].veinsmobility 	totalTime 	416.2
scalar RSUExampleScenario.node[14].veinsmobility 	stopTime 	450
scalar RSUExampleScenario.node[14].veinsmobility 	minSpeed 	0
scalar RSUExampleScenario.node[14].veinsmobility 	maxSpeed 	13.999942774109
scalar RSUExampleScenario.node[14].veinsmobility 	totalDistance 	2653.9344027585
scalar RSUExampleScenario.node[14].veinsmobility 	totalCO2Emission 	736.01940130259
scalar RSUExampleScenario.node[15].appl 	meanClusterNodes 	2
scalar RSUExampleScenario.node[15].appl 	meanClusterHeadUtility 	16.076786310223
scalar RSUExampleScenario.node[15].appl 	NumberofCH 	0.054054054054054
scalar RSUExampleScenario.node[15].appl 	NumberofON 	0.45945945945946
scalar RSUExampleScenario.node[15].appl 	NumberofFN 	0.48648648648649
scalar RSUExampleScenario.node[15].veinsmobility 	startTime 	36.2
scalar RSUExampleScenario.node[15].veinsmobility 	totalTime 	413.8
scalar RSUExampleScenario.node[15].veinsmobility 	stopTime 	450
scalar RSUExampleScenario.node[15].veinsmobility 	minSpeed 	0
scalar RSUExampleScenario.node[15].veinsmobility 	maxSpeed 	13.999867401563
scalar RSUExampleScenario.node[15].veinsmobility 	totalDistance 	2614.0489962725
scalar RSUExampleScenario.node[15].veinsmobility 	totalCO2Emission 	732.46668109383
scalar RSUExampleScenario.node[16].appl 	meanClusterNodes 	0
scalar RSUExampleScenario.node[16].appl 	meanClusterHeadUtility 	0
scalar RSUExampleScenario.node[16].appl 	NumberofCH 	0
scalar RSUExampleScenario.node[16].appl 	NumberofON 	0.32432432432432
scalar RSUExampleScenario.node[16].appl 	NumberofFN 	0.67567567567568
scalar RSUExampleScenario.node[16].veinsmobility 	startTime 	38.6
scalar RSUExampleScenario.node[16].veinsmobility 	totalTime 	411.4
scalar RSUExampleScenario.node[16].veinsmobility 	stopTime 	450
scalar RSUExampleScenario.node[16].veinsmobility 	minSpeed 	0
scalar RSUExampleScenario.node[16].veinsmobility 	maxSpeed 	13.99995921368
scalar RSUExampleScenario.node[16].veinsmobility 	totalDistance 	2582.7014740096
scalar RSUExampleScenario.node[16].veinsmobility 	totalCO2Emission 	726.24230480001
scalar RSUExampleScenario.node[17].appl 	meanClusterNodes 	0
scalar RSUExampleScenario.node[17].appl 	meanClusterHeadUtility 	0
scalar RSUExampleScenario.node[17].appl 	NumberofCH 	0
scalar RSUExampleScenario.node[17].appl 	NumberofON 	0.48648648648649
scalar RSUExampleScenario.node[17].appl 	NumberofFN 	0.51351351351351
scalar RSUExampleScenario.node[17].veinsmobility 	startTime 	41
scalar RSUExampleScenario.node[17].veinsmobility 	totalTime 	409
scalar RSUExampleScenario.node[17].veinsmobility 	stopTime 	450
scalar RSUExampleScenario.node[17].veinsmobility 	minSpeed 	0
scalar RSUExampleScenario.node[17].veinsmobility 	maxSpeed 	13.999939004323
scalar RSUExampleScenario.node[17].veinsmobility 	totalDistance 	2537.7359137702
scalar RSUExampleScenario.node[17].veinsmobility 	totalCO2Emission 	719.32843897245
scalar RSUExampleScenario.node[18].appl 	meanClusterNodes 	8.5
scalar RSUExampleScenario.node[18].appl 	meanClusterHeadUtility 	17.076339723865
scalar RSUExampleScenario.node[18].appl 	NumberofCH 	0.054054054054054
scalar RSUExampleScenario.node[18].appl 	NumberofON 	0.2972972972973
scalar RSUExampleScenario.node[18].appl 	NumberofFN 	0.64864864864865
scalar RSUExampleScenario.node[18].veinsmobility 	startTime 	43.4
scalar RSUExampleScenario.node[18].veinsmobility 	totalTime 	406.6
scalar RSUExampleScenario.node[18].veinsmobility 	stopTime 	450
scalar RSUExampleScenario.node[18].veinsmobility 	minSpeed 	0
scalar RSUExampleScenario.node[18].veinsmobility 	maxSpeed 	13.999910782061
scalar RSUExampleScenario.node[18].veinsmobility 	totalDistance 	2510.4409278611
scalar RSUExampleScenario.node[18].veinsmobility 	totalCO2Emission 	711.77950790059
scalar RSUExampleScenario.node[19].appl 	meanClusterNodes 	11.5
scalar RSUExampleScenario.node[19].appl 	meanClusterHeadUtility 	17.422023544782
scalar RSUExampleScenario.node[19].appl 	NumberofCH 	0.054054054054054
scalar RSUExampleScenario.node[19].appl 	NumberofON 	0.18918918918919
scalar RSUExampleScenario.node[19].appl 	NumberofFN 	0.75675675675676
scalar RSUExampleScenario.node[19].veinsmobility 	startTime 	45.8
scalar RSUExampleScenario.node[19].veinsmobility 	totalTime 	404.2
scalar RSUExampleScenario.node[19].veinsmobility 	stopTime 	450
scalar RSUExampleScenario.node[19].veinsmobility 	minSpeed 	0
scalar RSUExampleScenario.node[19].veinsmobility 	maxSpeed 	13.99996854757
scalar RSUExampleScenario.node[19].veinsmobility 	totalDistance 	2473.4180425472
scalar RSUExampleScenario.node[19].veinsmobility 	totalCO2Emission 	707.75624140175
scalar RSUExampleScenario.node[2].appl 	meanClusterNodes 	0
scalar RSUExampleScenario.node[2].appl 	meanClusterHeadUtility 	0
scalar RSUExampleScenario.node[2].appl 	NumberofCH 	0.027027027027027
scalar RSUExampleScenario.node[2].appl 	NumberofON 	0.48648648648649
scalar RSUExampleScenario.node[2].appl 	NumberofFN 	0.48648648648649
scalar RSUExampleScenario.node[2].veinsmobility 	startTime 	4.9
scalar RSUExampleScenario.node[2].veinsmobility 	totalTime 	445.1
scalar RSUExampleScenario.node[2].veinsmobility 	stopTime 	450
scalar RSUExampleScenario.node[2].veinsmobility 	minSpeed 	0
scalar RSUExampleScenario.node[2].veinsmobility 	maxSpeed 	13.999878942866
scalar RSUExampleScenario.node[2].veinsmobility 	totalDistance 	3039.7433572968
scalar RSUExampleScenario.node[2].veinsmobility 	totalCO2Emission 	823.39891806062
scalar RSUExampleScenario.node[20].appl 	meanClusterNodes 	3.75
scalar RSUExampleScenario.node[20].appl 	meanClusterHeadUtility 	8.8284287473049
scalar RSUExampleScenario.node[20].appl 	NumberofCH 	0.10810810810811
scalar RSUExampleScenario.node[20].appl 	NumberofON 	0.27027027027027
scalar RSUExampleScenario.node[20].appl 	NumberofFN 	0.62162162162162
scalar RSUExampleScenario.node[20].veinsmobility 	startTime 	48.3
scalar RSUExampleScenario.node[20].veinsmobility 	totalTime 	401.7
scalar RSUExampleScenario.node[20].veinsmobility 	stopTime 	450
scalar RSUExampleScenario.node[20].veinsmobility 	minSpeed 	0
scalar RSUExampleScenario.node[20].veinsmobility 	maxSpeed 	13.999979867765
scalar RSUExampleScenario.node[20].veinsmobility 	totalDistance 	2441.1973538991
scalar RSUExampleScenario.node[20].veinsmobility 	totalCO2Emission 	702.37563778271
scalar RSUExampleScenario.node[21].appl 	meanClusterNodes 	10
scalar RSUExampleScenario.node[21].appl 	meanClusterHeadUtility 	17.2095845401
scalar RSUExampleScenario.node[21].appl 	NumberofCH 	0.054054054054054
scalar RSUExampleScenario.node[21].appl 	NumberofON 	0.32432432432432
scalar RSUExampleScenario.node[21].appl 	NumberofFN 	0.62162162162162
scalar RSUExampleScenario.node[21].veinsmobility 	startTime 	50.7
scalar RSUExampleScenario.node[21].veinsmobility 	totalTime 	399.3
scalar RSUExampleScenario.node[21].veinsmobility 	stopTime 	450
scalar RSUExampleScenario.node[21].veinsmobility 	minSpeed 	0
scalar RSUExampleScenario.node[21].veinsmobility 	maxSpeed 	13.999989971521
scalar RSUExampleScenario.node[21].veinsmobility 	totalDistance 	2403.679737031
scalar RSUExampleScenario.node[21].veinsmobility 	totalCO2Emission 	691.3350846757
scalar RSUExampleScenario.node[22].appl 	meanClusterNodes 	6.5
scalar RSUExampleScenario.node[22].appl 	meanClusterHeadUtility 	16.60193535614
scalar RSUExampleScenario.node[22].appl 	NumberofCH 	0.054054054054054
scalar RSUExampleScenario.node[22].appl 	NumberofON 	0.45945945945946
scalar RSUExampleScenario.node[22].appl 	NumberofFN 	0.48648648648649
scalar RSUExampleScenario.node[22].veinsmobility 	startTime 	53.1
scalar RSUExampleScenario.node[22].veinsmobility 	totalTime 	396.9
scalar RSUExampleScenario.node[22].veinsmobility 	stopTime 	450
scalar RSUExampleScenario.node[22].veinsmobility 	minSpeed 	0
scalar RSUExampleScenario.node[22].veinsmobility 	maxSpeed 	13.999761967431
scalar RSUExampleScenario.node[22].veinsmobility 	totalDistance 	2375.2203022642
scalar RSUExampleScenario.node[22].veinsmobility 	totalCO2Emission 	690.37482814193
scalar RSUExampleScenario.node[23].appl 	meanClusterNodes 	12.5
scalar RSUExampleScenario.node[23].appl 	meanClusterHeadUtility 	17.153684379276
scalar RSUExampleScenario.node[23].appl 	NumberofCH 	0.054054054054054
scalar RSUExampleScenario.node[23].appl 	NumberofON 	0.24324324324324
scalar RSUExampleScenario.node[23].appl 	NumberofFN 	0.7027027027027
scalar RSUExampleScenario.node[23].veinsmobility 	startTime 	55.5
scalar RSUExampleScenario.node[23].veinsmobility 	totalTime 	394.5
scalar RSUExampleScenario.node[23].veinsmobility 	stopTime 	450
scalar RSUExampleScenario.node[23].veinsmobility 	minSpeed 	0
scalar RSUExampleScenario.node[23].veinsmobility 	maxSpeed 	13.999982646396
scalar RSUExampleScenario.node[23].veinsmobility 	totalDistance 	2337.0441332065
scalar RSUExampleScenario.node[23].veinsmobility 	totalCO2Emission 	680.80622859181
scalar RSUExampleScenario.node[24].appl 	meanClusterNodes 	0
scalar RSUExampleScenario.node[24].appl 	meanClusterHeadUtility 	0
scalar RSUExampleScenario.node[24].appl 	NumberofCH 	0
scalar RSUExampleScenario.node[24].appl 	NumberofON 	0.51351351351351
scalar RSUExampleScenario.node[24].appl 	NumberofFN 	0.48648648648649
scalar RSUExampleScenario.node[24].veinsmobility 	startTime 	57.9
scalar RSUExampleScenario.node[24].veinsmobility 	totalTime 	392.1
scalar RSUExampleScenario.node[24].veinsmobility 	stopTime 	450
scalar RSUExampleScenario.node[24].veinsmobility 	minSpeed 	0
scalar RSUExampleScenario.node[24].veinsmobility 	maxSpeed 	13.999956595409
scalar RSUExampleScenario.node[24].veinsmobility 	totalDistance 	2305.8594601176
scalar RSUExampleScenario.node[24].veinsmobility 	totalCO2Emission 	677.67461022694
scalar RSUExampleScenario.node[25].appl 	meanClusterNodes 	0
scalar RSUExampleScenario.node[25].appl 	meanClusterHeadUtility 	0
scalar RSUExampleScenario.node[25].appl 	NumberofCH 	0
scalar RSUExampleScenario.node[25].appl 	NumberofON 	0.54054054054054
scalar RSUExampleScenario.node[25].appl 	NumberofFN 	0.45945945945946
scalar RSUExampleScenario.node[25].veinsmobility 	startTime 	60.3
scalar RSUExampleScenario.node[25].veinsmobility 	totalTime 	389.7
scalar RSUExampleScenario.node[25].veinsmobility 	stopTime 	450
scalar RSUExampleScenario.node[25].veinsmobility 	minSpeed 	0
scalar RSUExampleScenario.node[25].veinsmobility 	maxSpeed 	13.999988137342
scalar RSUExampleScenario.node[25].veinsmobility 	totalDistance 	2268.2046131584
scalar RSUExampleScenario.node[25].veinsmobility 	totalCO2Emission 	673.92562729724
scalar RSUExampleScenario.node[26].appl 	meanClusterNodes 	4.75
scalar RSUExampleScenario.node[26].appl 	meanClusterHeadUtility 	7.8279747369365
scalar RSUExampleScenario.node[26].appl 	NumberofCH 	0.10810810810811
scalar RSUExampleScenario.node[26].appl 	NumberofON 	0.56756756756757
scalar RSUExampleScenario.node[26].appl 	NumberofFN 	0.32432432432432
scalar RSUExampleScenario.node[26].veinsmobility 	startTime 	62.7
scalar RSUExampleScenario.node[26].veinsmobility 	totalTime 	387.3
scalar RSUExampleScenario.node[26].veinsmobility 	stopTime 	450
scalar RSUExampleScenario.node[26].veinsmobility 	minSpeed 	0
scalar RSUExampleScenario.node[26].veinsmobility 	maxSpeed 	13.999923101827
scalar RSUExampleScenario.node[26].veinsmobility 	totalDistance 	2240.2976103375
scalar RSUExampleScenario.node[26].veinsmobility 	totalCO2Emission 	666.51027854795
scalar RSUExampleScenario.node[27].appl 	meanClusterNodes 	5
scalar RSUExampleScenario.node[27].appl 	meanClusterHeadUtility 	18.896069169057
scalar RSUExampleScenario.node[27].appl 	NumberofCH 	0.054054054054054
scalar RSUExampleScenario.node[27].appl 	NumberofON 	0.51351351351351
scalar RSUExampleScenario.node[27].appl 	NumberofFN 	0.43243243243243
scalar RSUExampleScenario.node[27].veinsmobility 	startTime 	65.1
scalar RSUExampleScenario.node[27].veinsmobility 	totalTime 	384.9
scalar RSUExampleScenario.node[27].veinsmobility 	stopTime 	450
scalar RSUExampleScenario.node[27].veinsmobility 	minSpeed 	0
scalar RSUExampleScenario.node[27].veinsmobility 	maxSpeed 	13.999935024385
scalar RSUExampleScenario.node[27].veinsmobility 	totalDistance 	2199.8714168429
scalar RSUExampleScenario.node[27].veinsmobility 	totalCO2Emission 	663.03316813378
scalar RSUExampleScenario.node[28].appl 	meanClusterNodes 	6.5
scalar RSUExampleScenario.node[28].appl 	meanClusterHeadUtility 	16.537634465921
scalar RSUExampleScenario.node[28].appl 	NumberofCH 	0.054054054054054
scalar RSUExampleScenario.node[28].appl 	NumberofON 	0.18918918918919
scalar RSUExampleScenario.node[28].appl 	NumberofFN 	0.75675675675676
scalar RSUExampleScenario.node[28].veinsmobility 	startTime 	67.5
scalar RSUExampleScenario.node[28].veinsmobility 	totalTime 	382.5
scalar RSUExampleScenario.node[28].veinsmobility 	stopTime 	450
scalar RSUExampleScenario.node[28].veinsmobility 	minSpeed 	0
scalar RSUExampleScenario.node[28].veinsmobility 	maxSpeed 	13.999906478347
scalar RSUExampleScenario.node[28].veinsmobility 	totalDistance 	2167.6797673352
scalar RSUExampleScenario.node[28].veinsmobility 	totalCO2Emission 	656.89568706023
scalar RSUExampleScenario.node[29].appl 	meanClusterNodes 	8.25
scalar RSUExampleScenario.node[29].appl 	meanClusterHeadUtility 	8.4734609837334
scalar RSUExampleScenario.node[29].appl 	NumberofCH 	0.10810810810811
scalar RSUExampleScenario.node[29].appl 	NumberofON 	0.35135135135135
scalar RSUExampleScenario.node[29].appl 	NumberofFN 	0.54054054054054
scalar RSUExampleScenario.node[29].veinsmobility 	startTime 	69.9
scalar RSUExampleScenario.node[29].veinsmobility 	totalTime 	380.1
scalar RSUExampleScenario.node[29].veinsmobility 	stopTime 	450
scalar RSUExampleScenario.node[29].veinsmobility 	minSpeed 	0
scalar RSUExampleScenario.node[29].veinsmobility 	maxSpeed 	13.999983578771
scalar RSUExampleScenario.node[29].veinsmobility 	totalDistance 	2133.779051477
scalar RSUExampleScenario.node[29].veinsmobility 	totalCO2Emission 	653.22296958414
scalar RSUExampleScenario.node[3].appl 	meanClusterNodes 	0
scalar RSUExampleScenario.node[3].appl 	meanClusterHeadUtility 	0
scalar RSUExampleScenario.node[3].appl 	NumberofCH 	0
scalar RSUExampleScenario.node[3].appl 	NumberofON 	0.27027027027027
scalar RSUExampleScenario.node[3].appl 	NumberofFN 	0.72972972972973
scalar RSUExampleScenario.node[3].veinsmobility 	startTime 	7.3
scalar RSUExampleScenario.node[3].veinsmobility 	totalTime 	442.7
scalar RSUExampleScenario.node[3].veinsmobility 	stopTime 	450
scalar RSUExampleScenario.node[3].veinsmobility 	minSpeed 	0
scalar RSUExampleScenario.node[3].veinsmobility 	maxSpeed 	13.999977533771
scalar RSUExampleScenario.node[3].veinsmobility 	totalDistance 	2992.0418552155
scalar RSUExampleScenario.node[3].veinsmobility 	totalCO2Emission 	813.22566222325
scalar RSUExampleScenario.node[30].appl 	meanClusterNodes 	3.5
scalar RSUExampleScenario.node[30].appl 	meanClusterHeadUtility 	8.2377112541038
scalar RSUExampleScenario.node[30].appl 	NumberofCH 	0.10810810810811
scalar RSUExampleScenario.node[30].appl 	NumberofON 	0.62162162162162
scalar RSUExampleScenario.node[30].appl 	NumberofFN 	0.27027027027027
scalar RSUExampleScenario.node[30].veinsmobility 	startTime 	72.4
scalar RSUExampleScenario.node[30].veinsmobility 	totalTime 	377.6
scalar RSUExampleScenario.node[30].veinsmobility 	stopTime 	450
scalar RSUExampleScenario.node[30].veinsmobility 	minSpeed 	0
scalar RSUExampleScenario.node[30].veinsmobility 	maxSpeed 	13.999865805956
scalar RSUExampleScenario.node[30].veinsmobility 	totalDistance 	2102.6574359542
scalar RSUExampleScenario.node[30].veinsmobility 	totalCO2Emission 	645.61023328708
scalar RSUExampleScenario.node[31].appl 	meanClusterNodes 	0
scalar RSUExampleScenario.node[31].appl 	meanClusterHeadUtility 	0
scalar RSUExampleScenario.node[31].appl 	NumberofCH 	0
scalar RSUExampleScenario.node[31].appl 	NumberofON 	0.56756756756757
scalar RSUExampleScenario.node[31].appl 	NumberofFN 	0.43243243243243
scalar RSUExampleScenario.node[31].veinsmobility 	startTime 	74.8
scalar RSUExampleScenario.node[31].veinsmobility 	totalTime 	375.2
scalar RSUExampleScenario.node[31].veinsmobility 	stopTime 	450
scalar RSUExampleScenario.node[31].veinsmobility 	minSpeed 	0
scalar RSUExampleScenario.node[31].veinsmobility 	maxSpeed 	13.99996785643
scalar RSUExampleScenario.node[31].veinsmobility 	totalDistance 	2066.0986897245
scalar RSUExampleScenario.node[31].veinsmobility 	totalCO2Emission 	636.60807429794
scalar RSUExampleScenario.node[32].appl 	meanClusterNodes 	0
scalar RSUExampleScenario.node[32].appl 	meanClusterHeadUtility 	0
scalar RSUExampleScenario.node[32].appl 	NumberofCH 	0
scalar RSUExampleScenario.node[32].appl 	NumberofON 	0.18918918918919
scalar RSUExampleScenario.node[32].appl 	NumberofFN 	0.81081081081081
scalar RSUExampleScenario.node[32].veinsmobility 	startTime 	77.2
scalar RSUExampleScenario.node[32].veinsmobility 	totalTime 	372.8
scalar RSUExampleScenario.node[32].veinsmobility 	stopTime 	450
scalar RSUExampleScenario.node[32].veinsmobility 	minSpeed 	0
scalar RSUExampleScenario.node[32].veinsmobility 	maxSpeed 	13.999996483345
scalar RSUExampleScenario.node[32].veinsmobility 	totalDistance 	2033.5450752619
scalar RSUExampleScenario.node[32].veinsmobility 	totalCO2Emission 	632.56722458656
scalar RSUExampleScenario.node[33].appl 	meanClusterNodes 	4
scalar RSUExampleScenario.node[33].appl 	meanClusterHeadUtility 	9.6101600780196
scalar RSUExampleScenario.node[33].appl 	NumberofCH 	0.10810810810811
scalar RSUExampleScenario.node[33].appl 	NumberofON 	0.48648648648649
scalar RSUExampleScenario.node[33].appl 	NumberofFN 	0.40540540540541
scalar RSUExampleScenario.node[33].veinsmobility 	startTime 	79.6
scalar RSUExampleScenario.node[33].veinsmobility 	totalTime 	370.4
scalar RSUExampleScenario.node[33].veinsmobility 	stopTime 	450
scalar RSUExampleScenario.node[33].veinsmobility 	minSpeed 	0
scalar RSUExampleScenario.node[33].veinsmobility 	maxSpeed 	13.99992996824
scalar RSUExampleScenario.node[33].veinsmobility 	totalDistance 	1998.9404083234
scalar RSUExampleScenario.node[33].veinsmobility 	totalCO2Emission 	629.03123390468
scalar RSUExampleScenario.node[34].appl 	meanClusterNodes 	0
scalar RSUExampleScenario.node[34].appl 	meanClusterHeadUtility 	0
scalar RSUExampleScenario.node[34].appl 	NumberofCH 	0
scalar RSUExampleScenario.node[34].appl 	NumberofON 	0.37837837837838
scalar RSUExampleScenario.node[34].appl 	NumberofFN 	0.62162162162162
scalar RSUExampleScenario.node[34].veinsmobility 	startTime 	82
scalar RSUExampleScenario.node[34].veinsmobility 	totalTime 	368
scalar RSUExampleScenario.node[34].veinsmobility 	stopTime 	450
scalar RSUExampleScenario.node[34].veinsmobility 	minSpeed 	0
scalar RSUExampleScenario.node[34].veinsmobility 	maxSpeed 	13.999869380817
scalar RSUExampleScenario.node[34].veinsmobility 	totalDistance 	1967.529173971
scalar RSUExampleScenario.node[34].veinsmobility 	totalCO2Emission 	623.73479537659
scalar RSUExampleScenario.node[35].appl 	meanClusterNodes 	4.5
scalar RSUExampleScenario.node[35].appl 	meanClusterHeadUtility 	17.892747907789
scalar RSUExampleScenario.node[35].appl 	NumberofCH 	0.054054054054054
scalar RSUExampleScenario.node[35].appl 	NumberofON 	0.64864864864865
scalar RSUExampleScenario.node[35].appl 	NumberofFN 	0.2972972972973
scalar RSUExampleScenario.node[35].veinsmobility 	startTime 	84.4
scalar RSUExampleScenario.node[35].veinsmobility 	totalTime 	365.6
scalar RSUExampleScenario.node[35].veinsmobility 	stopTime 	450
scalar RSUExampleScenario.node[35].veinsmobility 	minSpeed 	0
scalar RSUExampleScenario.node[35].veinsmobility 	maxSpeed 	13.999748179093
scalar RSUExampleScenario.node[35].veinsmobility 	totalDistance 	1932.577652942
scalar RSUExampleScenario.node[35].veinsmobility 	totalCO2Emission 	616.95664901754
scalar RSUExampleScenario.node[36].appl 	meanClusterNodes 	12.25
scalar RSUExampleScenario.node[36].appl 	meanClusterHeadUtility 	8.8019088492975
scalar RSUExampleScenario.node[36].appl 	NumberofCH 	0.10810810810811
scalar RSUExampleScenario.node[36].appl 	NumberofON 	0.27027027027027
scalar RSUExampleScenario.node[36].appl 	NumberofFN 	0.62162162162162
scalar RSUExampleScenario.node[36].veinsmobility 	startTime 	86.8
scalar RSUExampleScenario.node[36].veinsmobility 	totalTime 	363.2
scalar RSUExampleScenario.node[36].veinsmobility 	stopTime 	450
scalar RSUExampleScenario.node[36].veinsmobility 	minSpeed 	0
scalar RSUExampleScenario.node[36].veinsmobility 	maxSpeed 	13.999937289278
scalar RSUExampleScenario.node[36].veinsmobility 	totalDistance 	1898.9799202747
scalar RSUExampleScenario.node[36].veinsmobility 	totalCO2Emission 	610.62867474718
scalar RSUExampleScenario.node[37].appl 	meanClusterNodes 	5.5
scalar RSUExampleScenario.node[37].appl 	meanClusterHeadUtility 	16.923896200251
scalar RSUExampleScenario.node[37].appl 	NumberofCH 	0.054054054054054
scalar RSUExampleScenario.node[37].appl 	NumberofON 	0.43243243243243
scalar RSUExampleScenario.node[37].appl 	NumberofFN 	0.51351351351351
scalar RSUExampleScenario.node[37].veinsmobility 	startTime 	89.2
scalar RSUExampleScenario.node[37].veinsmobility 	totalTime 	360.8
scalar RSUExampleScenario.node[37].veinsmobility 	stopTime 	450
scalar RSUExampleScenario.node[37].veinsmobility 	minSpeed 	0
scalar RSUExampleScenario.node[37].veinsmobility 	maxSpeed 	13.999967244291
scalar RSUExampleScenario.node[37].veinsmobility 	totalDistance 	1865.0250769166
scalar RSUExampleScenario.node[37].veinsmobility 	totalCO2Emission 	604.60686077959
scalar RSUExampleScenario.node[38].appl 	meanClusterNodes 	0
scalar RSUExampleScenario.node[38].appl 	meanClusterHeadUtility 	0
scalar RSUExampleScenario.node[38].appl 	NumberofCH 	0
scalar RSUExampleScenario.node[38].appl 	NumberofON 	0.75675675675676
scalar RSUExampleScenario.node[38].appl 	NumberofFN 	0.24324324324324
scalar RSUExampleScenario.node[38].veinsmobility 	startTime 	91.6
scalar RSUExampleScenario.node[38].veinsmobility 	totalTime 	358.4
scalar RSUExampleScenario.node[38].veinsmobility 	stopTime 	450
scalar RSUExampleScenario.node[38].veinsmobility 	minSpeed 	0
scalar RSUExampleScenario.node[38].veinsmobility 	maxSpeed 	13.999974401882
scalar RSUExampleScenario.node[38].veinsmobility 	totalDistance 	1830.5388029389
scalar RSUExampleScenario.node[38].veinsmobility 	totalCO2Emission 	600.61803561523
scalar RSUExampleScenario.node[39].appl 	meanClusterNodes 	0
scalar RSUExampleScenario.node[39].appl 	meanClusterHeadUtility 	0
scalar RSUExampleScenario.node[39].appl 	NumberofCH 	0
scalar RSUExampleScenario.node[39].appl 	NumberofON 	0.40540540540541
scalar RSUExampleScenario.node[39].appl 	NumberofFN 	0.59459459459459
scalar RSUExampleScenario.node[39].veinsmobility 	startTime 	94
scalar RSUExampleScenario.node[39].veinsmobility 	totalTime 	356
scalar RSUExampleScenario.node[39].veinsmobility 	stopTime 	450
scalar RSUExampleScenario.node[39].veinsmobility 	minSpeed 	0
scalar RSUExampleScenario.node[39].veinsmobility 	maxSpeed 	13.999989709975
scalar RSUExampleScenario.node[39].veinsmobility 	totalDistance 	1797.1361177681
scalar RSUExampleScenario.node[39].veinsmobility 	totalCO2Emission 	593.5491765502
scalar RSUExampleScenario.node[4].appl 	meanClusterNodes 	5.5
scalar RSUExampleScenario.node[4].appl 	meanClusterHeadUtility 	17.094334553942
scalar RSUExampleScenario.node[4].appl 	NumberofCH 	0.054054054054054
scalar RSUExampleScenario.node[4].appl 	NumberofON 	0.27027027027027
scalar RSUExampleScenario.node[4].appl 	NumberofFN 	0.67567567567568
scalar RSUExampleScenario.node[4].veinsmobility 	startTime 	9.7
scalar RSUExampleScenario.node[4].veinsmobility 	totalTime 	440.3
scalar RSUExampleScenario.node[4].veinsmobility 	stopTime 	450
scalar RSUExampleScenario.node[4].veinsmobility 	minSpeed 	0
scalar RSUExampleScenario.node[4].veinsmobility 	maxSpeed 	13.999951238763
scalar RSUExampleScenario.node[4].veinsmobility 	totalDistance 	2949.835652506
scalar RSUExampleScenario.node[4].veinsmobility 	totalCO2Emission 	795.1088514279
scalar RSUExampleScenario.node[40].appl 	meanClusterNodes 	3.5
scalar RSUExampleScenario.node[40].appl 	meanClusterHeadUtility 	16.07834367709
scalar RSUExampleScenario.node[40].appl 	NumberofCH 	0.054054054054054
scalar RSUExampleScenario.node[40].appl 	NumberofON 	0.51351351351351
scalar RSUExampleScenario.node[40].appl 	NumberofFN 	0.43243243243243
scalar RSUExampleScenario.node[40].veinsmobility 	startTime 	96.5
scalar RSUExampleScenario.node[40].veinsmobility 	totalTime 	353.5
scalar RSUExampleScenario.node[40].veinsmobility 	stopTime 	450
scalar RSUExampleScenario.node[40].veinsmobility 	minSpeed 	0
scalar RSUExampleScenario.node[40].veinsmobility 	maxSpeed 	13.999989103163
scalar RSUExampleScenario.node[40].veinsmobility 	totalDistance 	1764.2874992466
scalar RSUExampleScenario.node[40].veinsmobility 	totalCO2Emission 	589.96503136299
scalar RSUExampleScenario.node[41].appl 	meanClusterNodes 	5
scalar RSUExampleScenario.node[41].appl 	meanClusterHeadUtility 	9.1012545365234
scalar RSUExampleScenario.node[41].appl 	NumberofCH 	0.10810810810811
scalar RSUExampleScenario.node[41].appl 	NumberofON 	0.51351351351351
scalar RSUExampleScenario.node[41].appl 	NumberofFN 	0.37837837837838
scalar RSUExampleScenario.node[41].veinsmobility 	startTime 	98.9
scalar RSUExampleScenario.node[41].veinsmobility 	totalTime 	351.1
scalar RSUExampleScenario.node[41].veinsmobility 	stopTime 	450
scalar RSUExampleScenario.node[41].veinsmobility 	minSpeed 	0
scalar RSUExampleScenario.node[41].veinsmobility 	maxSpeed 	13.999987292865
scalar RSUExampleScenario.node[41].veinsmobility 	totalDistance 	1731.5167918094
scalar RSUExampleScenario.node[41].veinsmobility 	totalCO2Emission 	580.27351741528
scalar RSUExampleScenario.node[42].appl 	meanClusterNodes 	3
scalar RSUExampleScenario.node[42].appl 	meanClusterHeadUtility 	33.495371379454
scalar RSUExampleScenario.node[42].appl 	NumberofCH 	0.027027027027027
scalar RSUExampleScenario.node[42].appl 	NumberofON 	0.64864864864865
scalar RSUExampleScenario.node[42].appl 	NumberofFN 	0.32432432432432
scalar RSUExampleScenario.node[42].veinsmobility 	startTime 	101.3
scalar RSUExampleScenario.node[42].veinsmobility 	totalTime 	348.7
scalar RSUExampleScenario.node[42].veinsmobility 	stopTime 	450
scalar RSUExampleScenario.node[42].veinsmobility 	minSpeed 	0
scalar RSUExampleScenario.node[42].veinsmobility 	maxSpeed 	13.999784149202
scalar RSUExampleScenario.node[42].veinsmobility 	totalDistance 	1696.5764537891
scalar RSUExampleScenario.node[42].veinsmobility 	totalCO2Emission 	577.49641110556
scalar RSUExampleScenario.node[43].appl 	meanClusterNodes 	0
scalar RSUExampleScenario.node[43].appl 	meanClusterHeadUtility 	0
scalar RSUExampleScenario.node[43].appl 	NumberofCH 	0.054054054054054
scalar RSUExampleScenario.node[43].appl 	NumberofON 	0.13513513513514
scalar RSUExampleScenario.node[43].appl 	NumberofFN 	0.81081081081081
scalar RSUExampleScenario.node[43].veinsmobility 	startTime 	103.7
scalar RSUExampleScenario.node[43].veinsmobility 	totalTime 	346.3
scalar RSUExampleScenario.node[43].veinsmobility 	stopTime 	450
scalar RSUExampleScenario.node[43].veinsmobility 	minSpeed 	0
scalar RSUExampleScenario.node[43].veinsmobility 	maxSpeed 	13.999881731698
scalar RSUExampleScenario.node[43].veinsmobility 	totalDistance 	1661.4129004428
scalar RSUExampleScenario.node[43].veinsmobility 	totalCO2Emission 	569.12991630976
scalar RSUExampleScenario.node[44].appl 	meanClusterNodes 	4.5
scalar RSUExampleScenario.node[44].appl 	meanClusterHeadUtility 	16.446857951468
scalar RSUExampleScenario.node[44].appl 	NumberofCH 	0.054054054054054
scalar RSUExampleScenario.node[44].appl 	NumberofON 	0.51351351351351
scalar RSUExampleScenario.node[44].appl 	NumberofFN 	0.43243243243243
scalar RSUExampleScenario.node[44].veinsmobility 	startTime 	106.1
scalar RSUExampleScenario.node[44].veinsmobility 	totalTime 	343.9
scalar RSUExampleScenario.node[44].veinsmobility 	stopTime 	450
scalar RSUExampleScenario.node[44].veinsmobility 	minSpeed 	0
scalar RSUExampleScenario.node[44].veinsmobility 	maxSpeed 	13.99968671069
scalar RSUExampleScenario.node[44].veinsmobility 	totalDistance 	1628.900647327
scalar RSUExampleScenario.node[44].veinsmobility 	totalCO2Emission 	565.81419800078
scalar RSUExampleScenario.node[45].appl 	meanClusterNodes 	3.5
scalar RSUExampleScenario.node[45].appl 	meanClusterHeadUtility 	18.084214074689
scalar RSUExampleScenario.node[45].appl 	NumberofCH 	0.054054054054054
scalar RSUExampleScenario.node[45].appl 	NumberofON 	0.45945945945946
scalar RSUExampleScenario.node[45].appl 	NumberofFN 	0.48648648648649
scalar RSUExampleScenario.node[45].veinsmobility 	startTime 	108.5
scalar RSUExampleScenario.node[45].veinsmobility 	totalTime 	341.5
scalar RSUExampleScenario.node[45].veinsmobility 	stopTime 	450
scalar RSUExampleScenario.node[45].veinsmobility 	minSpeed 	0
scalar RSUExampleScenario.node[45].veinsmobility 	maxSpeed 	13.999968128388
scalar RSUExampleScenario.node[45].veinsmobility 	totalDistance 	1594.4687308763
scalar RSUExampleScenario.node[45].veinsmobility 	totalCO2Emission 	554.94995303285
scalar RSUExampleScenario.node[46].appl 	meanClusterNodes 	6
scalar RSUExampleScenario.node[46].appl 	meanClusterHeadUtility 	17.840504668903
scalar RSUExampleScenario.node[46].appl 	NumberofCH 	0.054054054054054
scalar RSUExampleScenario.node[46].appl 	NumberofON 	0.40540540540541
scalar RSUExampleScenario.node[46].appl 	NumberofFN 	0.54054054054054
scalar RSUExampleScenario.node[46].veinsmobility 	startTime 	110.9
scalar RSUExampleScenario.node[46].veinsmobility 	totalTime 	339.1
scalar RSUExampleScenario.node[46].veinsmobility 	stopTime 	450
scalar RSUExampleScenario.node[46].veinsmobility 	minSpeed 	0
scalar RSUExampleScenario.node[46].veinsmobility 	maxSpeed 	13.999741320519
scalar RSUExampleScenario.node[46].veinsmobility 	totalDistance 	1562.0845051792
scalar RSUExampleScenario.node[46].veinsmobility 	totalCO2Emission 	553.09038889087
scalar RSUExampleScenario.node[47].appl 	meanClusterNodes 	10.5
scalar RSUExampleScenario.node[47].appl 	meanClusterHeadUtility 	17.171430658695
scalar RSUExampleScenario.node[47].appl 	NumberofCH 	0.054054054054054
scalar RSUExampleScenario.node[47].appl 	NumberofON 	0.40540540540541
scalar RSUExampleScenario.node[47].appl 	NumberofFN 	0.54054054054054
scalar RSUExampleScenario.node[47].veinsmobility 	startTime 	113.3
scalar RSUExampleScenario.node[47].veinsmobility 	totalTime 	336.7
scalar RSUExampleScenario.node[47].veinsmobility 	stopTime 	450
scalar RSUExampleScenario.node[47].veinsmobility 	minSpeed 	0
scalar RSUExampleScenario.node[47].veinsmobility 	maxSpeed 	13.99996050576
scalar RSUExampleScenario.node[47].veinsmobility 	totalDistance 	1528.2104303642
scalar RSUExampleScenario.node[47].veinsmobility 	totalCO2Emission 	549.14325893947
scalar RSUExampleScenario.node[48].appl 	meanClusterNodes 	8.25
scalar RSUExampleScenario.node[48].appl 	meanClusterHeadUtility 	8.5679322244187
scalar RSUExampleScenario.node[48].appl 	NumberofCH 	0.10810810810811
scalar RSUExampleScenario.node[48].appl 	NumberofON 	0.18918918918919
scalar RSUExampleScenario.node[48].appl 	NumberofFN 	0.7027027027027
scalar RSUExampleScenario.node[48].veinsmobility 	startTime 	115.7
scalar RSUExampleScenario.node[48].veinsmobility 	totalTime 	334.3
scalar RSUExampleScenario.node[48].veinsmobility 	stopTime 	450
scalar RSUExampleScenario.node[48].veinsmobility 	minSpeed 	0
scalar RSUExampleScenario.node[48].veinsmobility 	maxSpeed 	13.9994056711
scalar RSUExampleScenario.node[48].veinsmobility 	totalDistance 	1494.4735577237
scalar RSUExampleScenario.node[48].veinsmobility 	totalCO2Emission 	540.2609807769
scalar RSUExampleScenario.node[49].appl 	meanClusterNodes 	0
scalar RSUExampleScenario.node[49].appl 	meanClusterHeadUtility 	0
scalar RSUExampleScenario.node[49].appl 	NumberofCH 	0
scalar RSUExampleScenario.node[49].appl 	NumberofON 	0.67567567567568
scalar RSUExampleScenario.node[49].appl 	NumberofFN 	0.32432432432432
scalar RSUExampleScenario.node[49].veinsmobility 	startTime 	118.1
scalar RSUExampleScenario.node[49].veinsmobility 	totalTime 	331.9
scalar RSUExampleScenario.node[49].veinsmobility 	stopTime 	450
scalar RSUExampleScenario.node[49].veinsmobility 	minSpeed 	0
scalar RSUExampleScenario.node[49].veinsmobility 	maxSpeed 	13.99981656712
scalar RSUExampleScenario.node[49].veinsmobility 	totalDistance 	1460.4659767359
scalar RSUExampleScenario.node[49].veinsmobility 	totalCO2Emission 	536.26067455451
scalar RSUExampleScenario.node[5].appl 	meanClusterNodes 	3
scalar RSUExampleScenario.node[5].appl 	meanClusterHeadUtility 	17.507026139404
scalar RSUExampleScenario.node[5].appl 	NumberofCH 	0.054054054054054
scalar RSUExampleScenario.node[5].appl 	NumberofON 	0.35135135135135
scalar RSUExampleScenario.node[5].appl 	NumberofFN 	0.59459459459459
scalar RSUExampleScenario.node[5].veinsmobility 	startTime 	12.1
scalar RSUExampleScenario.node[5].veinsmobility 	totalTime 	437.9
scalar RSUExampleScenario.node[5].veinsmobility 	stopTime 	450
scalar RSUExampleScenario.node[5].veinsmobility 	minSpeed 	0
scalar RSUExampleScenario.node[5].veinsmobility 	maxSpeed 	13.999998022048
scalar RSUExampleScenario.node[5].veinsmobility 	totalDistance 	2913.7749713057
scalar RSUExampleScenario.node[5].veinsmobility 	totalCO2Emission 	779.34732621807
scalar RSUExampleScenario.node[50].appl 	meanClusterNodes 	0
scalar RSUExampleScenario.node[50].appl 	meanClusterHeadUtility 	0
scalar RSUExampleScenario.node[50].appl 	NumberofCH 	0
scalar RSUExampleScenario.node[50].appl 	NumberofON 	0.48648648648649
scalar RSUExampleScenario.node[50].appl 	NumberofFN 	0.51351351351351
scalar RSUExampleScenario.node[50].veinsmobility 	startTime 	120.6
scalar RSUExampleScenario.node[50].veinsmobility 	totalTime 	329.4
scalar RSUExampleScenario.node[50].veinsmobility 	stopTime 	450
scalar RSUExampleScenario.node[50].veinsmobility 	minSpeed 	0
scalar RSUExampleScenario.node[50].veinsmobility 	maxSpeed 	13.999942883225
scalar RSUExampleScenario.node[50].veinsmobility 	totalDistance 	1428.3791170822
scalar RSUExampleScenario.node[50].veinsmobility 	totalCO2Emission 	530.48095125944
scalar RSUExampleScenario.node[51].appl 	meanClusterNodes 	9.5
scalar RSUExampleScenario.node[51].appl 	meanClusterHeadUtility 	17.796729280168
scalar RSUExampleScenario.node[51].appl 	NumberofCH 	0.054054054054054
scalar RSUExampleScenario.node[51].appl 	NumberofON 	0.43243243243243
scalar RSUExampleScenario.node[51].appl 	NumberofFN 	0.51351351351351
scalar RSUExampleScenario.node[51].veinsmobility 	startTime 	123
scalar RSUExampleScenario.node[51].veinsmobility 	totalTime 	327
scalar RSUExampleScenario.node[51].veinsmobility 	stopTime 	450
scalar RSUExampleScenario.node[51].veinsmobility 	minSpeed 	0
scalar RSUExampleScenario.node[51].veinsmobility 	maxSpeed 	13.999278295555
scalar RSUExampleScenario.node[51].veinsmobility 	totalDistance 	1394.1247116124
scalar RSUExampleScenario.node[51].veinsmobility 	totalCO2Emission 	524.0661215912
scalar RSUExampleScenario.node[52].appl 	meanClusterNodes 	0
scalar RSUExampleScenario.node[52].appl 	meanClusterHeadUtility 	0
scalar RSUExampleScenario.node[52].appl 	NumberofCH 	0
scalar RSUExampleScenario.node[52].appl 	NumberofON 	0.54054054054054
scalar RSUExampleScenario.node[52].appl 	NumberofFN 	0.45945945945946
scalar RSUExampleScenario.node[52].veinsmobility 	startTime 	125.4
scalar RSUExampleScenario.node[52].veinsmobility 	totalTime 	324.6
scalar RSUExampleScenario.node[52].veinsmobility 	stopTime 	450
scalar RSUExampleScenario.node[52].veinsmobility 	minSpeed 	0
scalar RSUExampleScenario.node[52].veinsmobility 	maxSpeed 	13.999666695835
scalar RSUExampleScenario.node[52].veinsmobility 	totalDistance 	1361.0333780717
scalar RSUExampleScenario.node[52].veinsmobility 	totalCO2Emission 	518.27805381053
scalar RSUExampleScenario.node[53].appl 	meanClusterNodes 	3.25
scalar RSUExampleScenario.node[53].appl 	meanClusterHeadUtility 	8.4167429391771
scalar RSUExampleScenario.node[53].appl 	NumberofCH 	0.10810810810811
scalar RSUExampleScenario.node[53].appl 	NumberofON 	0.081081081081081
scalar RSUExampleScenario.node[53].appl 	NumberofFN 	0.81081081081081
scalar RSUExampleScenario.node[53].veinsmobility 	startTime 	127.8
scalar RSUExampleScenario.node[53].veinsmobility 	totalTime 	322.2
scalar RSUExampleScenario.node[53].veinsmobility 	stopTime 	450
scalar RSUExampleScenario.node[53].veinsmobility 	minSpeed 	0
scalar RSUExampleScenario.node[53].veinsmobility 	maxSpeed 	13.999825351464
scalar RSUExampleScenario.node[53].veinsmobility 	totalDistance 	1328.1546211263
scalar RSUExampleScenario.node[53].veinsmobility 	totalCO2Emission 	513.50195206347
scalar RSUExampleScenario.node[54].appl 	meanClusterNodes 	2
scalar RSUExampleScenario.node[54].appl 	meanClusterHeadUtility 	17.885055900831
scalar RSUExampleScenario.node[54].appl 	NumberofCH 	0.054054054054054
scalar RSUExampleScenario.node[54].appl 	NumberofON 	0.59459459459459
scalar RSUExampleScenario.node[54].appl 	NumberofFN 	0.35135135135135
scalar RSUExampleScenario.node[54].veinsmobility 	startTime 	130.2
scalar RSUExampleScenario.node[54].veinsmobility 	totalTime 	319.8
scalar RSUExampleScenario.node[54].veinsmobility 	stopTime 	450
scalar RSUExampleScenario.node[54].veinsmobility 	minSpeed 	0
scalar RSUExampleScenario.node[54].veinsmobility 	maxSpeed 	13.999728456172
scalar RSUExampleScenario.node[54].veinsmobility 	totalDistance 	1294.3851683005
scalar RSUExampleScenario.node[54].veinsmobility 	totalCO2Emission 	509.13342348397
scalar RSUExampleScenario.node[55].appl 	meanClusterNodes 	7.5
scalar RSUExampleScenario.node[55].appl 	meanClusterHeadUtility 	18.49933040895
scalar RSUExampleScenario.node[55].appl 	NumberofCH 	0.054054054054054
scalar RSUExampleScenario.node[55].appl 	NumberofON 	0.51351351351351
scalar RSUExampleScenario.node[55].appl 	NumberofFN 	0.43243243243243
scalar RSUExampleScenario.node[55].veinsmobility 	startTime 	132.6
scalar RSUExampleScenario.node[55].veinsmobility 	totalTime 	317.4
scalar RSUExampleScenario.node[55].veinsmobility 	stopTime 	450
scalar RSUExampleScenario.node[55].veinsmobility 	minSpeed 	0
scalar RSUExampleScenario.node[55].veinsmobility 	maxSpeed 	13.999471128217
scalar RSUExampleScenario.node[55].veinsmobility 	totalDistance 	1261.7953934442
scalar RSUExampleScenario.node[55].veinsmobility 	totalCO2Emission 	503.19862635076
scalar RSUExampleScenario.node[56].appl 	meanClusterNodes 	1.5
scalar RSUExampleScenario.node[56].appl 	meanClusterHeadUtility 	8.239692716705
scalar RSUExampleScenario.node[56].appl 	NumberofCH 	0.10810810810811
scalar RSUExampleScenario.node[56].appl 	NumberofON 	0.59459459459459
scalar RSUExampleScenario.node[56].appl 	NumberofFN 	0.2972972972973
scalar RSUExampleScenario.node[56].veinsmobility 	startTime 	135
scalar RSUExampleScenario.node[56].veinsmobility 	totalTime 	315
scalar RSUExampleScenario.node[56].veinsmobility 	stopTime 	450
scalar RSUExampleScenario.node[56].veinsmobility 	minSpeed 	0
scalar RSUExampleScenario.node[56].veinsmobility 	maxSpeed 	13.999763222795
scalar RSUExampleScenario.node[56].veinsmobility 	totalDistance 	1225.9266968658
scalar RSUExampleScenario.node[56].veinsmobility 	totalCO2Emission 	496.19383398409
scalar RSUExampleScenario.node[57].appl 	meanClusterNodes 	5.5
scalar RSUExampleScenario.node[57].appl 	meanClusterHeadUtility 	18.498995990742
scalar RSUExampleScenario.node[57].appl 	NumberofCH 	0.054054054054054
scalar RSUExampleScenario.node[57].appl 	NumberofON 	0.7027027027027
scalar RSUExampleScenario.node[57].appl 	NumberofFN 	0.24324324324324
scalar RSUExampleScenario.node[57].veinsmobility 	startTime 	137.4
scalar RSUExampleScenario.node[57].veinsmobility 	totalTime 	312.6
scalar RSUExampleScenario.node[57].veinsmobility 	stopTime 	450
scalar RSUExampleScenario.node[57].veinsmobility 	minSpeed 	0
scalar RSUExampleScenario.node[57].veinsmobility 	maxSpeed 	13.999863619215
scalar RSUExampleScenario.node[57].veinsmobility 	totalDistance 	1191.4810043158
scalar RSUExampleScenario.node[57].veinsmobility 	totalCO2Emission 	491.79009850734
scalar RSUExampleScenario.node[58].appl 	meanClusterNodes 	0
scalar RSUExampleScenario.node[58].appl 	meanClusterHeadUtility 	0
scalar RSUExampleScenario.node[58].appl 	NumberofCH 	0
scalar RSUExampleScenario.node[58].appl 	NumberofON 	0.48648648648649
scalar RSUExampleScenario.node[58].appl 	NumberofFN 	0.51351351351351
scalar RSUExampleScenario.node[58].veinsmobility 	startTime 	139.8
scalar RSUExampleScenario.node[58].veinsmobility 	totalTime 	310.2
scalar RSUExampleScenario.node[58].veinsmobility 	stopTime 	450
scalar RSUExampleScenario.node[58].veinsmobility 	minSpeed 	0
scalar RSUExampleScenario.node[58].veinsmobility 	maxSpeed 	13.999639847165
scalar RSUExampleScenario.node[58].veinsmobility 	totalDistance 	1159.4206506221
scalar RSUExampleScenario.node[58].veinsmobility 	totalCO2Emission 	486.41359174552
scalar RSUExampleScenario.node[59].appl 	meanClusterNodes 	10.5
scalar RSUExampleScenario.node[59].appl 	meanClusterHeadUtility 	17.263523774767
scalar RSUExampleScenario.node[59].appl 	NumberofCH 	0.054054054054054
scalar RSUExampleScenario.node[59].appl 	NumberofON 	0.48648648648649
scalar RSUExampleScenario.node[59].appl 	NumberofFN 	0.45945945945946
scalar RSUExampleScenario.node[59].veinsmobility 	startTime 	142.2
scalar RSUExampleScenario.node[59].veinsmobility 	totalTime 	307.8
scalar RSUExampleScenario.node[59].veinsmobility 	stopTime 	450
scalar RSUExampleScenario.node[59].veinsmobility 	minSpeed 	0
scalar RSUExampleScenario.node[59].veinsmobility 	maxSpeed 	13.999978871131
scalar RSUExampleScenario.node[59].veinsmobility 	totalDistance 	1124.830687368
scalar RSUExampleScenario.node[59].veinsmobility 	totalCO2Emission 	480.53285342634
scalar RSUExampleScenario.node[6].appl 	meanClusterNodes 	6
scalar RSUExampleScenario.node[6].appl 	meanClusterHeadUtility 	9.5606807151548
scalar RSUExampleScenario.node[6].appl 	NumberofCH 	0.10810810810811
scalar RSUExampleScenario.node[6].appl 	NumberofON 	0.24324324324324
scalar RSUExampleScenario.node[6].appl 	NumberofFN 	0.64864864864865
scalar RSUExampleScenario.node[6].veinsmobility 	startTime 	14.5
scalar RSUExampleScenario.node[6].veinsmobility 	totalTime 	435.5
scalar RSUExampleScenario.node[6].veinsmobility 	stopTime 	450
scalar RSUExampleScenario.node[6].veinsmobility 	minSpeed 	0
scalar RSUExampleScenario.node[6].veinsmobility 	maxSpeed 	13.999830703903
scalar RSUExampleScenario.node[6].veinsmobility 	totalDistance 	2905.762187203
scalar RSUExampleScenario.node[6].veinsmobility 	totalCO2Emission 	774.14779594537
scalar RSUExampleScenario.node[60].appl 	meanClusterNodes 	7.5
scalar RSUExampleScenario.node[60].appl 	meanClusterHeadUtility 	16.844487888466
scalar RSUExampleScenario.node[60].appl 	NumberofCH 	0.054054054054054
scalar RSUExampleScenario.node[60].appl 	NumberofON 	0.64864864864865
scalar RSUExampleScenario.node[60].appl 	NumberofFN 	0.2972972972973
scalar RSUExampleScenario.node[60].veinsmobility 	startTime 	144.7
scalar RSUExampleScenario.node[60].veinsmobility 	totalTime 	305.3
scalar RSUExampleScenario.node[60].veinsmobility 	stopTime 	450
scalar RSUExampleScenario.node[60].veinsmobility 	minSpeed 	0
scalar RSUExampleScenario.node[60].veinsmobility 	maxSpeed 	13.999215484827
scalar RSUExampleScenario.node[60].veinsmobility 	totalDistance 	1092.1831961796
scalar RSUExampleScenario.node[60].veinsmobility 	totalCO2Emission 	474.58908439506
scalar RSUExampleScenario.node[61].appl 	meanClusterNodes 	5
scalar RSUExampleScenario.node[61].appl 	meanClusterHeadUtility 	17.708442852392
scalar RSUExampleScenario.node[61].appl 	NumberofCH 	0.054054054054054
scalar RSUExampleScenario.node[61].appl 	NumberofON 	0.54054054054054
scalar RSUExampleScenario.node[61].appl 	NumberofFN 	0.40540540540541
scalar RSUExampleScenario.node[61].veinsmobility 	startTime 	147.1
scalar RSUExampleScenario.node[61].veinsmobility 	totalTime 	302.9
scalar RSUExampleScenario.node[61].veinsmobility 	stopTime 	450
scalar RSUExampleScenario.node[61].veinsmobility 	minSpeed 	0
scalar RSUExampleScenario.node[61].veinsmobility 	maxSpeed 	13.999835465178
scalar RSUExampleScenario.node[61].veinsmobility 	totalDistance 	1056.9884867189
scalar RSUExampleScenario.node[61].veinsmobility 	totalCO2Emission 	467.22929748338
scalar RSUExampleScenario.node[62].appl 	meanClusterNodes 	0
scalar RSUExampleScenario.node[62].appl 	meanClusterHeadUtility 	0
scalar RSUExampleScenario.node[62].appl 	NumberofCH 	0
scalar RSUExampleScenario.node[62].appl 	NumberofON 	0.2972972972973
scalar RSUExampleScenario.node[62].appl 	NumberofFN 	0.7027027027027
scalar RSUExampleScenario.node[62].veinsmobility 	startTime 	149.5
scalar RSUExampleScenario.node[62].veinsmobility 	totalTime 	300.5
scalar RSUExampleScenario.node[62].veinsmobility 	stopTime 	450
scalar RSUExampleScenario.node[62].veinsmobility 	minSpeed 	0
scalar RSUExampleScenario.node[62].veinsmobility 	maxSpeed 	13.999940302486
scalar RSUExampleScenario.node[62].veinsmobility 	totalDistance 	1024.6699439714
scalar RSUExampleScenario.node[62].veinsmobility 	totalCO2Emission 	463.57597521085
scalar RSUExampleScenario.node[63].appl 	meanClusterNodes 	4.25
scalar RSUExampleScenario.node[63].appl 	meanClusterHeadUtility 	8.4438498091508
scalar RSUExampleScenario.node[63].appl 	NumberofCH 	0.10810810810811
scalar RSUExampleScenario.node[63].appl 	NumberofON 	0.54054054054054
scalar RSUExampleScenario.node[63].appl 	NumberofFN 	0.35135135135135
scalar RSUExampleScenario.node[63].veinsmobility 	startTime 	151.9
scalar RSUExampleScenario.node[63].veinsmobility 	totalTime 	298.1
scalar RSUExampleScenario.node[63].veinsmobility 	stopTime 	450
scalar RSUExampleScenario.node[63].veinsmobility 	minSpeed 	0
scalar RSUExampleScenario.node[63].veinsmobility 	maxSpeed 	13.999939760719
scalar RSUExampleScenario.node[63].veinsmobility 	totalDistance 	986.08599736425
scalar RSUExampleScenario.node[63].veinsmobility 	totalCO2Emission 	449.20880935893
scalar RSUExampleScenario.node[64].appl 	meanClusterNodes 	8.5
scalar RSUExampleScenario.node[64].appl 	meanClusterHeadUtility 	17.371342425032
scalar RSUExampleScenario.node[64].appl 	NumberofCH 	0.054054054054054
scalar RSUExampleScenario.node[64].appl 	NumberofON 	0.48648648648649
scalar RSUExampleScenario.node[64].appl 	NumberofFN 	0.45945945945946
scalar RSUExampleScenario.node[64].veinsmobility 	startTime 	154.3
scalar RSUExampleScenario.node[64].veinsmobility 	totalTime 	295.7
scalar RSUExampleScenario.node[64].veinsmobility 	stopTime 	450
scalar RSUExampleScenario.node[64].veinsmobility 	minSpeed 	0
scalar RSUExampleScenario.node[64].veinsmobility 	maxSpeed 	13.999900780884
scalar RSUExampleScenario.node[64].veinsmobility 	totalDistance 	953.26283823061
scalar RSUExampleScenario.node[64].veinsmobility 	totalCO2Emission 	434.15241219082
scalar RSUExampleScenario.node[65].appl 	meanClusterNodes 	9
scalar RSUExampleScenario.node[65].appl 	meanClusterHeadUtility 	17.790578966161
scalar RSUExampleScenario.node[65].appl 	NumberofCH 	0.054054054054054
scalar RSUExampleScenario.node[65].appl 	NumberofON 	0.40540540540541
scalar RSUExampleScenario.node[65].appl 	NumberofFN 	0.54054054054054
scalar RSUExampleScenario.node[65].veinsmobility 	startTime 	156.7
scalar RSUExampleScenario.node[65].veinsmobility 	totalTime 	293.3
scalar RSUExampleScenario.node[65].veinsmobility 	stopTime 	450
scalar RSUExampleScenario.node[65].veinsmobility 	minSpeed 	0
scalar RSUExampleScenario.node[65].veinsmobility 	maxSpeed 	13.99996612937
scalar RSUExampleScenario.node[65].veinsmobility 	totalDistance 	940.3960320304
scalar RSUExampleScenario.node[65].veinsmobility 	totalCO2Emission 	428.78666169336
scalar RSUExampleScenario.node[66].appl 	meanClusterNodes 	12
scalar RSUExampleScenario.node[66].appl 	meanClusterHeadUtility 	17.871460642159
scalar RSUExampleScenario.node[66].appl 	NumberofCH 	0.054054054054054
scalar RSUExampleScenario.node[66].appl 	NumberofON 	0.35135135135135
scalar RSUExampleScenario.node[66].appl 	NumberofFN 	0.59459459459459
scalar RSUExampleScenario.node[66].veinsmobility 	startTime 	159.1
scalar RSUExampleScenario.node[66].veinsmobility 	totalTime 	290.9
scalar RSUExampleScenario.node[66].veinsmobility 	stopTime 	450
scalar RSUExampleScenario.node[66].veinsmobility 	minSpeed 	0
scalar RSUExampleScenario.node[66].veinsmobility 	maxSpeed 	13.999981370571
scalar RSUExampleScenario.node[66].veinsmobility 	totalDistance 	928.03958425381
scalar RSUExampleScenario.node[66].veinsmobility 	totalCO2Emission 	423.90456643718
scalar RSUExampleScenario.node[67].appl 	meanClusterNodes 	0
scalar RSUExampleScenario.node[67].appl 	meanClusterHeadUtility 	0
scalar RSUExampleScenario.node[67].appl 	NumberofCH 	0
scalar RSUExampleScenario.node[67].appl 	NumberofON 	0.56756756756757
scalar RSUExampleScenario.node[67].appl 	NumberofFN 	0.43243243243243
scalar RSUExampleScenario.node[67].veinsmobility 	startTime 	161.5
scalar RSUExampleScenario.node[67].veinsmobility 	totalTime 	288.5
scalar RSUExampleScenario.node[67].veinsmobility 	stopTime 	450
scalar RSUExampleScenario.node[67].veinsmobility 	minSpeed 	0
scalar RSUExampleScenario.node[67].veinsmobility 	maxSpeed 	13.999981135509
scalar RSUExampleScenario.node[67].veinsmobility 	totalDistance 	913.17150114043
scalar RSUExampleScenario.node[67].veinsmobility 	totalCO2Emission 	419.71843441806
scalar RSUExampleScenario.node[68].appl 	meanClusterNodes 	7
scalar RSUExampleScenario.node[68].appl 	meanClusterHeadUtility 	20.05607190188
scalar RSUExampleScenario.node[68].appl 	NumberofCH 	0.054054054054054
scalar RSUExampleScenario.node[68].appl 	NumberofON 	0.35135135135135
scalar RSUExampleScenario.node[68].appl 	NumberofFN 	0.59459459459459
scalar RSUExampleScenario.node[68].veinsmobility 	startTime 	163.9
scalar RSUExampleScenario.node[68].veinsmobility 	totalTime 	286.1
scalar RSUExampleScenario.node[68].veinsmobility 	stopTime 	450
scalar RSUExampleScenario.node[68].veinsmobility 	minSpeed 	0
scalar RSUExampleScenario.node[68].veinsmobility 	maxSpeed 	13.999846376332
scalar RSUExampleScenario.node[68].veinsmobility 	totalDistance 	894.04557694374
scalar RSUExampleScenario.node[68].veinsmobility 	totalCO2Emission 	418.12112346299
scalar RSUExampleScenario.node[69].appl 	meanClusterNodes 	0
scalar RSUExampleScenario.node[69].appl 	meanClusterHeadUtility 	0
scalar RSUExampleScenario.node[69].appl 	NumberofCH 	0
scalar RSUExampleScenario.node[69].appl 	NumberofON 	0.43243243243243
scalar RSUExampleScenario.node[69].appl 	NumberofFN 	0.56756756756757
scalar RSUExampleScenario.node[69].veinsmobility 	startTime 	166.3
scalar RSUExampleScenario.node[69].veinsmobility 	totalTime 	283.7
scalar RSUExampleScenario.node[69].veinsmobility 	stopTime 	450
scalar RSUExampleScenario.node[69].veinsmobility 	minSpeed 	0
scalar RSUExampleScenario.node[69].veinsmobility 	maxSpeed 	13.999577422293
scalar RSUExampleScenario.node[69].veinsmobility 	totalDistance 	858.7348281537
scalar RSUExampleScenario.node[69].veinsmobility 	totalCO2Emission 	412.51477426058
scalar RSUExampleScenario.node[7].appl 	meanClusterNodes 	7.5
scalar RSUExampleScenario.node[7].appl 	meanClusterHeadUtility 	18.727284886953
scalar RSUExampleScenario.node[7].appl 	NumberofCH 	0.054054054054054
scalar RSUExampleScenario.node[7].appl 	NumberofON 	0.18918918918919
scalar RSUExampleScenario.node[7].appl 	NumberofFN 	0.75675675675676
scalar RSUExampleScenario.node[7].veinsmobility 	startTime 	16.9
scalar RSUExampleScenario.node[7].veinsmobility 	totalTime 	433.1
scalar RSUExampleScenario.node[7].veinsmobility 	stopTime 	450
scalar RSUExampleScenario.node[7].veinsmobility 	minSpeed 	0
scalar RSUExampleScenario.node[7].veinsmobility 	maxSpeed 	13.999957847111
scalar RSUExampleScenario.node[7].veinsmobility 	totalDistance 	2885.6580295229
scalar RSUExampleScenario.node[7].veinsmobility 	totalCO2Emission 	777.28431656345
scalar RSUExampleScenario.node[70].appl 	meanClusterNodes 	7
scalar RSUExampleScenario.node[70].appl 	meanClusterHeadUtility 	9.1318580307262
scalar RSUExampleScenario.node[70].appl 	NumberofCH 	0.10810810810811
scalar RSUExampleScenario.node[70].appl 	NumberofON 	0.2972972972973
scalar RSUExampleScenario.node[70].appl 	NumberofFN 	0.59459459459459
scalar RSUExampleScenario.node[70].veinsmobility 	startTime 	168.8
scalar RSUExampleScenario.node[70].veinsmobility 	totalTime 	281.2
scalar RSUExampleScenario.node[70].veinsmobility 	stopTime 	450
scalar RSUExampleScenario.node[70].veinsmobility 	minSpeed 	0
scalar RSUExampleScenario.node[70].veinsmobility 	maxSpeed 	13.999900920601
scalar RSUExampleScenario.node[70].veinsmobility 	totalDistance 	824.3324695796
scalar RSUExampleScenario.node[70].veinsmobility 	totalCO2Emission 	408.98884151617
scalar RSUExampleScenario.node[71].appl 	meanClusterNodes 	3.5
scalar RSUExampleScenario.node[71].appl 	meanClusterHeadUtility 	16.22807941702
scalar RSUExampleScenario.node[71].appl 	NumberofCH 	0.054054054054054
scalar RSUExampleScenario.node[71].appl 	NumberofON 	0.43243243243243
scalar RSUExampleScenario.node[71].appl 	NumberofFN 	0.51351351351351
scalar RSUExampleScenario.node[71].veinsmobility 	startTime 	171.2
scalar RSUExampleScenario.node[71].veinsmobility 	totalTime 	278.8
scalar RSUExampleScenario.node[71].veinsmobility 	stopTime 	450
scalar RSUExampleScenario.node[71].veinsmobility 	minSpeed 	0
scalar RSUExampleScenario.node[71].veinsmobility 	maxSpeed 	13.999266667322
scalar RSUExampleScenario.node[71].veinsmobility 	totalDistance 	791.127649105
scalar RSUExampleScenario.node[71].veinsmobility 	totalCO2Emission 	400.3368524818
scalar RSUExampleScenario.node[72].appl 	meanClusterNodes 	5.5
scalar RSUExampleScenario.node[72].appl 	meanClusterHeadUtility 	17.484438719898
scalar RSUExampleScenario.node[72].appl 	NumberofCH 	0.054054054054054
scalar RSUExampleScenario.node[72].appl 	NumberofON 	0.59459459459459
scalar RSUExampleScenario.node[72].appl 	NumberofFN 	0.35135135135135
scalar RSUExampleScenario.node[72].veinsmobility 	startTime 	173.6
scalar RSUExampleScenario.node[72].veinsmobility 	totalTime 	276.4
scalar RSUExampleScenario.node[72].veinsmobility 	stopTime 	450
scalar RSUExampleScenario.node[72].veinsmobility 	minSpeed 	0
scalar RSUExampleScenario.node[72].veinsmobility 	maxSpeed 	13.999895900686
scalar RSUExampleScenario.node[72].veinsmobility 	totalDistance 	758.50571197194
scalar RSUExampleScenario.node[72].veinsmobility 	totalCO2Emission 	397.02803017506
scalar RSUExampleScenario.node[73].appl 	meanClusterNodes 	3.5
scalar RSUExampleScenario.node[73].appl 	meanClusterHeadUtility 	8.1490280263346
scalar RSUExampleScenario.node[73].appl 	NumberofCH 	0.10810810810811
scalar RSUExampleScenario.node[73].appl 	NumberofON 	0.45945945945946
scalar RSUExampleScenario.node[73].appl 	NumberofFN 	0.43243243243243
scalar RSUExampleScenario.node[73].veinsmobility 	startTime 	176
scalar RSUExampleScenario.node[73].veinsmobility 	totalTime 	274
scalar RSUExampleScenario.node[73].veinsmobility 	stopTime 	450
scalar RSUExampleScenario.node[73].veinsmobility 	minSpeed 	0
scalar RSUExampleScenario.node[73].veinsmobility 	maxSpeed 	13.999585998091
scalar RSUExampleScenario.node[73].veinsmobility 	totalDistance 	724.74642582849
scalar RSUExampleScenario.node[73].veinsmobility 	totalCO2Emission 	391.50140925593
scalar RSUExampleScenario.node[74].appl 	meanClusterNodes 	2.25
scalar RSUExampleScenario.node[74].appl 	meanClusterHeadUtility 	8.6570771554037
scalar RSUExampleScenario.node[74].appl 	NumberofCH 	0.10810810810811
scalar RSUExampleScenario.node[74].appl 	NumberofON 	0.59459459459459
scalar RSUExampleScenario.node[74].appl 	NumberofFN 	0.2972972972973
scalar RSUExampleScenario.node[74].veinsmobility 	startTime 	178.4
scalar RSUExampleScenario.node[74].veinsmobility 	totalTime 	271.6
scalar RSUExampleScenario.node[74].veinsmobility 	stopTime 	450
scalar RSUExampleScenario.node[74].veinsmobility 	minSpeed 	0
scalar RSUExampleScenario.node[74].veinsmobility 	maxSpeed 	13.999793167759
scalar RSUExampleScenario.node[74].veinsmobility 	totalDistance 	692.18568682474
scalar RSUExampleScenario.node[74].veinsmobility 	totalCO2Emission 	385.27677607483
scalar RSUExampleScenario.node[75].appl 	meanClusterNodes 	12
scalar RSUExampleScenario.node[75].appl 	meanClusterHeadUtility 	17.37299945194
scalar RSUExampleScenario.node[75].appl 	NumberofCH 	0.054054054054054
scalar RSUExampleScenario.node[75].appl 	NumberofON 	0.32432432432432
scalar RSUExampleScenario.node[75].appl 	NumberofFN 	0.62162162162162
scalar RSUExampleScenario.node[75].veinsmobility 	startTime 	180.8
scalar RSUExampleScenario.node[75].veinsmobility 	totalTime 	269.2
scalar RSUExampleScenario.node[75].veinsmobility 	stopTime 	450
scalar RSUExampleScenario.node[75].veinsmobility 	minSpeed 	0
scalar RSUExampleScenario.node[75].veinsmobility 	maxSpeed 	13.999119689777
scalar RSUExampleScenario.node[75].veinsmobility 	totalDistance 	659.04742864085
scalar RSUExampleScenario.node[75].veinsmobility 	totalCO2Emission 	380.37830785395
scalar RSUExampleScenario.node[76].appl 	meanClusterNodes 	5.25
scalar RSUExampleScenario.node[76].appl 	meanClusterHeadUtility 	8.2178249076989
scalar RSUExampleScenario.node[76].appl 	NumberofCH 	0.10810810810811
scalar RSUExampleScenario.node[76].appl 	NumberofON 	0.43243243243243
scalar RSUExampleScenario.node[76].appl 	NumberofFN 	0.45945945945946
scalar RSUExampleScenario.node[76].veinsmobility 	startTime 	183.2
scalar RSUExampleScenario.node[76].veinsmobility 	totalTime 	266.8
scalar RSUExampleScenario.node[76].veinsmobility 	stopTime 	450
scalar RSUExampleScenario.node[76].veinsmobility 	minSpeed 	0
scalar RSUExampleScenario.node[76].veinsmobility 	maxSpeed 	13.999782514155
scalar RSUExampleScenario.node[76].veinsmobility 	totalDistance 	624.50602034745
scalar RSUExampleScenario.node[76].veinsmobility 	totalCO2Emission 	373.09711164369
scalar RSUExampleScenario.node[77].appl 	meanClusterNodes 	11
scalar RSUExampleScenario.node[77].appl 	meanClusterHeadUtility 	17.236046239188
scalar RSUExampleScenario.node[77].appl 	NumberofCH 	0.054054054054054
scalar RSUExampleScenario.node[77].appl 	NumberofON 	0.27027027027027
scalar RSUExampleScenario.node[77].appl 	NumberofFN 	0.67567567567568
scalar RSUExampleScenario.node[77].veinsmobility 	startTime 	185.6
scalar RSUExampleScenario.node[77].veinsmobility 	totalTime 	264.4
scalar RSUExampleScenario.node[77].veinsmobility 	stopTime 	450
scalar RSUExampleScenario.node[77].veinsmobility 	minSpeed 	0
scalar RSUExampleScenario.node[77].veinsmobility 	maxSpeed 	13.999891565493
scalar RSUExampleScenario.node[77].veinsmobility 	totalDistance 	590.75406010872
scalar RSUExampleScenario.node[77].veinsmobility 	totalCO2Emission 	366.84398136388
scalar RSUExampleScenario.node[78].appl 	meanClusterNodes 	6.5
scalar RSUExampleScenario.node[78].appl 	meanClusterHeadUtility 	19.238654752258
scalar RSUExampleScenario.node[78].appl 	NumberofCH 	0.054054054054054
scalar RSUExampleScenario.node[78].appl 	NumberofON 	0.43243243243243
scalar RSUExampleScenario.node[78].appl 	NumberofFN 	0.51351351351351
scalar RSUExampleScenario.node[78].veinsmobility 	startTime 	188
scalar RSUExampleScenario.node[78].veinsmobility 	totalTime 	262
scalar RSUExampleScenario.node[78].veinsmobility 	stopTime 	450
scalar RSUExampleScenario.node[78].veinsmobility 	minSpeed 	0
scalar RSUExampleScenario.node[78].veinsmobility 	maxSpeed 	13.999786211783
scalar RSUExampleScenario.node[78].veinsmobility 	totalDistance 	558.05967272872
scalar RSUExampleScenario.node[78].veinsmobility 	totalCO2Emission 	361.40608534255
scalar RSUExampleScenario.node[79].appl 	meanClusterNodes 	1
scalar RSUExampleScenario.node[79].appl 	meanClusterHeadUtility 	17.036750777337
scalar RSUExampleScenario.node[79].appl 	NumberofCH 	0.054054054054054
scalar RSUExampleScenario.node[79].appl 	NumberofON 	0.48648648648649
scalar RSUExampleScenario.node[79].appl 	NumberofFN 	0.45945945945946
scalar RSUExampleScenario.node[79].veinsmobility 	startTime 	190.4
scalar RSUExampleScenario.node[79].veinsmobility 	totalTime 	259.6
scalar RSUExampleScenario.node[79].veinsmobility 	stopTime 	450
scalar RSUExampleScenario.node[79].veinsmobility 	minSpeed 	0
scalar RSUExampleScenario.node[79].veinsmobility 	maxSpeed 	13.99952823452
scalar RSUExampleScenario.node[79].veinsmobility 	totalDistance 	524.87165032626
scalar RSUExampleScenario.node[79].veinsmobility 	totalCO2Emission 	357.13706845004
scalar RSUExampleScenario.node[8].appl 	meanClusterNodes 	2.5
scalar RSUExampleScenario.node[8].appl 	meanClusterHeadUtility 	16.78372456926
scalar RSUExampleScenario.node[8].appl 	NumberofCH 	0.054054054054054
scalar RSUExampleScenario.node[8].appl 	NumberofON 	0.37837837837838
scalar RSUExampleScenario.node[8].appl 	NumberofFN 	0.56756756756757
scalar RSUExampleScenario.node[8].veinsmobility 	startTime 	19.3
scalar RSUExampleScenario.node[8].veinsmobility 	totalTime 	430.7
scalar RSUExampleScenario.node[8].veinsmobility 	stopTime 	450
scalar RSUExampleScenario.node[8].veinsmobility 	minSpeed 	0
scalar RSUExampleScenario.node[8].veinsmobility 	maxSpeed 	13.999970551613
scalar RSUExampleScenario.node[8].veinsmobility 	totalDistance 	2860.780429006
scalar RSUExampleScenario.node[8].veinsmobility 	totalCO2Emission 	772.46574447062
scalar RSUExampleScenario.node[80].appl 	meanClusterNodes 	3
scalar RSUExampleScenario.node[80].appl 	meanClusterHeadUtility 	18.426248271726
scalar RSUExampleScenario.node[80].appl 	NumberofCH 	0.054054054054054
scalar RSUExampleScenario.node[80].appl 	NumberofON 	0.21621621621622
scalar RSUExampleScenario.node[80].appl 	NumberofFN 	0.72972972972973
scalar RSUExampleScenario.node[80].veinsmobility 	startTime 	192.9
scalar RSUExampleScenario.node[80].veinsmobility 	totalTime 	257.1
scalar RSUExampleScenario.node[80].veinsmobility 	stopTime 	450
scalar RSUExampleScenario.node[80].veinsmobility 	minSpeed 	0
scalar RSUExampleScenario.node[80].veinsmobility 	maxSpeed 	13.999469957391
scalar RSUExampleScenario.node[80].veinsmobility 	totalDistance 	491.02531769982
scalar RSUExampleScenario.node[80].veinsmobility 	totalCO2Emission 	351.92732440788
scalar RSUExampleScenario.node[81].appl 	meanClusterNodes 	0
scalar RSUExampleScenario.node[81].appl 	meanClusterHeadUtility 	0
scalar RSUExampleScenario.node[81].appl 	NumberofCH 	0
scalar RSUExampleScenario.node[81].appl 	NumberofON 	0.40540540540541
scalar RSUExampleScenario.node[81].appl 	NumberofFN 	0.59459459459459
scalar RSUExampleScenario.node[81].veinsmobility 	startTime 	195.3
scalar RSUExampleScenario.node[81].veinsmobility 	totalTime 	254.7
scalar RSUExampleScenario.node[81].veinsmobility 	stopTime 	450
scalar RSUExampleScenario.node[81].veinsmobility 	minSpeed 	0
scalar RSUExampleScenario.node[81].veinsmobility 	maxSpeed 	13.999291594096
scalar RSUExampleScenario.node[81].veinsmobility 	totalDistance 	456.29447589354
scalar RSUExampleScenario.node[81].veinsmobility 	totalCO2Emission 	344.73627371077
scalar RSUExampleScenario.node[82].appl 	meanClusterNodes 	6.5
scalar RSUExampleScenario.node[82].appl 	meanClusterHeadUtility 	17.179419958198
scalar RSUExampleScenario.node[82].appl 	NumberofCH 	0.054054054054054
scalar RSUExampleScenario.node[82].appl 	NumberofON 	0.48648648648649
scalar RSUExampleScenario.node[82].appl 	NumberofFN 	0.45945945945946
scalar RSUExampleScenario.node[82].veinsmobility 	startTime 	197.7
scalar RSUExampleScenario.node[82].veinsmobility 	totalTime 	252.3
scalar RSUExampleScenario.node[82].veinsmobility 	stopTime 	450
scalar RSUExampleScenario.node[82].veinsmobility 	minSpeed 	0
scalar RSUExampleScenario.node[82].veinsmobility 	maxSpeed 	13.996092111312
scalar RSUExampleScenario.node[82].veinsmobility 	totalDistance 	424.61420488134
scalar RSUExampleScenario.node[82].veinsmobility 	totalCO2Emission 	339.59656700974
scalar RSUExampleScenario.node[83].appl 	meanClusterNodes 	5
scalar RSUExampleScenario.node[83].appl 	meanClusterHeadUtility 	34.233015824943
scalar RSUExampleScenario.node[83].appl 	NumberofCH 	0.027027027027027
scalar RSUExampleScenario.node[83].appl 	NumberofON 	0.35135135135135
scalar RSUExampleScenario.node[83].appl 	NumberofFN 	0.62162162162162
scalar RSUExampleScenario.node[83].veinsmobility 	startTime 	200.1
scalar RSUExampleScenario.node[83].veinsmobility 	totalTime 	249.9
scalar RSUExampleScenario.node[83].veinsmobility 	stopTime 	450
scalar RSUExampleScenario.node[83].veinsmobility 	minSpeed 	0
scalar RSUExampleScenario.node[83].veinsmobility 	maxSpeed 	13.999835059042
scalar RSUExampleScenario.node[83].veinsmobility 	totalDistance 	390.06082683095
scalar RSUExampleScenario.node[83].veinsmobility 	totalCO2Emission 	333.54927735428
scalar RSUExampleScenario.node[84].appl 	meanClusterNodes 	8.5
scalar RSUExampleScenario.node[84].appl 	meanClusterHeadUtility 	17.251339688472
scalar RSUExampleScenario.node[84].appl 	NumberofCH 	0.054054054054054
scalar RSUExampleScenario.node[84].appl 	NumberofON 	0.27027027027027
scalar RSUExampleScenario.node[84].appl 	NumberofFN 	0.67567567567568
scalar RSUExampleScenario.node[84].veinsmobility 	startTime 	202.5
scalar RSUExampleScenario.node[84].veinsmobility 	totalTime 	247.5
scalar RSUExampleScenario.node[84].veinsmobility 	stopTime 	450
scalar RSUExampleScenario.node[84].veinsmobility 	minSpeed 	0
scalar RSUExampleScenario.node[84].veinsmobility 	maxSpeed 	13.998990043467
scalar RSUExampleScenario.node[84].veinsmobility 	totalDistance 	355.99294335947
scalar RSUExampleScenario.node[84].veinsmobility 	totalCO2Emission 	328.7531284292
scalar RSUExampleScenario.node[85].appl 	meanClusterNodes 	2
scalar RSUExampleScenario.node[85].appl 	meanClusterHeadUtility 	16.026527892701
scalar RSUExampleScenario.node[85].appl 	NumberofCH 	0.054054054054054
scalar RSUExampleScenario.node[85].appl 	NumberofON 	0.67567567567568
scalar RSUExampleScenario.node[85].appl 	NumberofFN 	0.27027027027027
scalar RSUExampleScenario.node[85].veinsmobility 	startTime 	204.9
scalar RSUExampleScenario.node[85].veinsmobility 	totalTime 	245.1
scalar RSUExampleScenario.node[85].veinsmobility 	stopTime 	450
scalar RSUExampleScenario.node[85].veinsmobility 	minSpeed 	0
scalar RSUExampleScenario.node[85].veinsmobility 	maxSpeed 	13.999062879193
scalar RSUExampleScenario.node[85].veinsmobility 	totalDistance 	324.62387684196
scalar RSUExampleScenario.node[85].veinsmobility 	totalCO2Emission 	323.33708869291
scalar RSUExampleScenario.node[86].appl 	meanClusterNodes 	7.25
scalar RSUExampleScenario.node[86].appl 	meanClusterHeadUtility 	8.8242777352733
scalar RSUExampleScenario.node[86].appl 	NumberofCH 	0.10810810810811
scalar RSUExampleScenario.node[86].appl 	NumberofON 	0.37837837837838
scalar RSUExampleScenario.node[86].appl 	NumberofFN 	0.51351351351351
scalar RSUExampleScenario.node[86].veinsmobility 	startTime 	207.3
scalar RSUExampleScenario.node[86].veinsmobility 	totalTime 	242.7
scalar RSUExampleScenario.node[86].veinsmobility 	stopTime 	450
scalar RSUExampleScenario.node[86].veinsmobility 	minSpeed 	0
scalar RSUExampleScenario.node[86].veinsmobility 	maxSpeed 	13.85301356768
scalar RSUExampleScenario.node[86].veinsmobility 	totalDistance 	286.79182951478
scalar RSUExampleScenario.node[86].veinsmobility 	totalCO2Emission 	315.482506803
scalar RSUExampleScenario.node[87].appl 	meanClusterNodes 	0
scalar RSUExampleScenario.node[87].appl 	meanClusterHeadUtility 	0
scalar RSUExampleScenario.node[87].appl 	NumberofCH 	0.054054054054054
scalar RSUExampleScenario.node[87].appl 	NumberofON 	0.40540540540541
scalar RSUExampleScenario.node[87].appl 	NumberofFN 	0.54054054054054
scalar RSUExampleScenario.node[87].veinsmobility 	startTime 	209.7
scalar RSUExampleScenario.node[87].veinsmobility 	totalTime 	240.3
scalar RSUExampleScenario.node[87].veinsmobility 	stopTime 	450
scalar RSUExampleScenario.node[87].veinsmobility 	minSpeed 	0
scalar RSUExampleScenario.node[87].veinsmobility 	maxSpeed 	13.884957191078
scalar RSUExampleScenario.node[87].veinsmobility 	totalDistance 	249.74922244645
scalar RSUExampleScenario.node[87].veinsmobility 	totalCO2Emission 	299.72656458807
scalar RSUExampleScenario.node[88].appl 	meanClusterNodes 	8
scalar RSUExampleScenario.node[88].appl 	meanClusterHeadUtility 	18.639702399721
scalar RSUExampleScenario.node[88].appl 	NumberofCH 	0.054054054054054
scalar RSUExampleScenario.node[88].appl 	NumberofON 	0.40540540540541
scalar RSUExampleScenario.node[88].appl 	NumberofFN 	0.54054054054054
scalar RSUExampleScenario.node[88].veinsmobility 	startTime 	212.1
scalar RSUExampleScenario.node[88].veinsmobility 	totalTime 	237.9
scalar RSUExampleScenario.node[88].veinsmobility 	stopTime 	450
scalar RSUExampleScenario.node[88].veinsmobility 	minSpeed 	0
scalar RSUExampleScenario.node[88].veinsmobility 	maxSpeed 	13.804619873751
scalar RSUExampleScenario.node[88].veinsmobility 	totalDistance 	226.10425720512
scalar RSUExampleScenario.node[88].veinsmobility 	totalCO2Emission 	287.58475921913
scalar RSUExampleScenario.node[89].appl 	meanClusterNodes 	6.5
scalar RSUExampleScenario.node[89].appl 	meanClusterHeadUtility 	17.005407719417
scalar RSUExampleScenario.node[89].appl 	NumberofCH 	0.054054054054054
scalar RSUExampleScenario.node[89].appl 	NumberofON 	0.56756756756757
scalar RSUExampleScenario.node[89].appl 	NumberofFN 	0.37837837837838
scalar RSUExampleScenario.node[89].veinsmobility 	startTime 	214.5
scalar RSUExampleScenario.node[89].veinsmobility 	totalTime 	235.5
scalar RSUExampleScenario.node[89].veinsmobility 	stopTime 	450
scalar RSUExampleScenario.node[89].veinsmobility 	minSpeed 	0
scalar RSUExampleScenario.node[89].veinsmobility 	maxSpeed 	13.847369002791
scalar RSUExampleScenario.node[89].veinsmobility 	totalDistance 	215.36509033844
scalar RSUExampleScenario.node[89].veinsmobility 	totalCO2Emission 	283.01527826417
scalar RSUExampleScenario.node[9].appl 	meanClusterNodes 	0
scalar RSUExampleScenario.node[9].appl 	meanClusterHeadUtility 	0
scalar RSUExampleScenario.node[9].appl 	NumberofCH 	0
scalar RSUExampleScenario.node[9].appl 	NumberofON 	0.45945945945946
scalar RSUExampleScenario.node[9].appl 	NumberofFN 	0.54054054054054
scalar RSUExampleScenario.node[9].veinsmobility 	startTime 	21.7
scalar RSUExampleScenario.node[9].veinsmobility 	totalTime 	428.3
scalar RSUExampleScenario.node[9].veinsmobility 	stopTime 	450
scalar RSUExampleScenario.node[9].veinsmobility 	minSpeed 	0
scalar RSUExampleScenario.node[9].veinsmobility 	maxSpeed 	13.999924932222
scalar RSUExampleScenario.node[9].veinsmobility 	totalDistance 	2824.8381097332
scalar RSUExampleScenario.node[9].veinsmobility 	totalCO2Emission 	761.53667417376
scalar RSUExampleScenario.node[90].appl 	meanClusterNodes 	0
scalar RSUExampleScenario.node[90].appl 	meanClusterHeadUtility 	0
scalar RSUExampleScenario.node[90].appl 	NumberofCH 	0
scalar RSUExampleScenario.node[90].appl 	NumberofON 	0.54054054054054
scalar RSUExampleScenario.node[90].appl 	NumberofFN 	0.45945945945946
scalar RSUExampleScenario.node[90].veinsmobility 	startTime 	217
scalar RSUExampleScenario.node[90].veinsmobility 	totalTime 	233
scalar RSUExampleScenario.node[90].veinsmobility 	stopTime 	450
scalar RSUExampleScenario.node[90].veinsmobility 	minSpeed 	0
scalar RSUExampleScenario.node[90].veinsmobility 	maxSpeed 	13.845919525169
scalar RSUExampleScenario.node[90].veinsmobility 	totalDistance 	202.05809514582
scalar RSUExampleScenario.node[90].veinsmobility 	totalCO2Emission 	279.79623063005
scalar RSUExampleScenario.node[91].appl 	meanClusterNodes 	9.6666666666667
scalar RSUExampleScenario.node[91].appl 	meanClusterHeadUtility 	12.547134932809
scalar RSUExampleScenario.node[91].appl 	NumberofCH 	0.081081081081081
scalar RSUExampleScenario.node[91].appl 	NumberofON 	0.16216216216216
scalar RSUExampleScenario.node[91].appl 	NumberofFN 	0.75675675675676
scalar RSUExampleScenario.node[91].veinsmobility 	startTime 	219.4
scalar RSUExampleScenario.node[91].veinsmobility 	totalTime 	230.6
scalar RSUExampleScenario.node[91].veinsmobility 	stopTime 	450
scalar RSUExampleScenario.node[91].veinsmobility 	minSpeed 	0
scalar RSUExampleScenario.node[91].veinsmobility 	maxSpeed 	13.829167073069
scalar RSUExampleScenario.node[91].veinsmobility 	totalDistance 	185.05309384949
scalar RSUExampleScenario.node[91].veinsmobility 	totalCO2Emission 	277.5627240052
scalar RSUExampleScenario.node[92].appl 	meanClusterNodes 	5
scalar RSUExampleScenario.node[92].appl 	meanClusterHeadUtility 	18.550091343196
scalar RSUExampleScenario.node[92].appl 	NumberofCH 	0.054054054054054
scalar RSUExampleScenario.node[92].appl 	NumberofON 	0.37837837837838
scalar RSUExampleScenario.node[92].appl 	NumberofFN 	0.56756756756757
scalar RSUExampleScenario.node[92].veinsmobility 	startTime 	221.8
scalar RSUExampleScenario.node[92].veinsmobility 	totalTime 	228.2
scalar RSUExampleScenario.node[92].veinsmobility 	stopTime 	450
scalar RSUExampleScenario.node[92].veinsmobility 	minSpeed 	0
scalar RSUExampleScenario.node[92].veinsmobility 	maxSpeed 	13.834931897742
scalar RSUExampleScenario.node[92].veinsmobility 	totalDistance 	150.67831009353
scalar RSUExampleScenario.node[92].veinsmobility 	totalCO2Emission 	264.06609093825
scalar RSUExampleScenario.node[93].appl 	meanClusterNodes 	6.5
scalar RSUExampleScenario.node[93].appl 	meanClusterHeadUtility 	18.316993408117
scalar RSUExampleScenario.node[93].appl 	NumberofCH 	0.054054054054054
scalar RSUExampleScenario.node[93].appl 	NumberofON 	0.35135135135135
scalar RSUExampleScenario.node[93].appl 	NumberofFN 	0.59459459459459
scalar RSUExampleScenario.node[93].veinsmobility 	startTime 	224.2
scalar RSUExampleScenario.node[93].veinsmobility 	totalTime 	225.8
scalar RSUExampleScenario.node[93].veinsmobility 	stopTime 	450
scalar RSUExampleScenario.node[93].veinsmobility 	minSpeed 	0
scalar RSUExampleScenario.node[93].veinsmobility 	maxSpeed 	13.824199017894
scalar RSUExampleScenario.node[93].veinsmobility 	totalDistance 	123.76859785893
scalar RSUExampleScenario.node[93].veinsmobility 	totalCO2Emission 	251.38604837454
scalar RSUExampleScenario.node[94].appl 	meanClusterNodes 	8
scalar RSUExampleScenario.node[94].appl 	meanClusterHeadUtility 	19.463728270154
scalar RSUExampleScenario.node[94].appl 	NumberofCH 	0.054054054054054
scalar RSUExampleScenario.node[94].appl 	NumberofON 	0.2972972972973
scalar RSUExampleScenario.node[94].appl 	NumberofFN 	0.64864864864865
scalar RSUExampleScenario.node[94].veinsmobility 	startTime 	226.6
scalar RSUExampleScenario.node[94].veinsmobility 	totalTime 	223.4
scalar RSUExampleScenario.node[94].veinsmobility 	stopTime 	450
scalar RSUExampleScenario.node[94].veinsmobility 	minSpeed 	0
scalar RSUExampleScenario.node[94].veinsmobility 	maxSpeed 	13.830985779017
scalar RSUExampleScenario.node[94].veinsmobility 	totalDistance 	112.40137989904
scalar RSUExampleScenario.node[94].veinsmobility 	totalCO2Emission 	245.65069236359
scalar RSUExampleScenario.node[95].appl 	meanClusterNodes 	4
scalar RSUExampleScenario.node[95].appl 	meanClusterHeadUtility 	20.004518021467
scalar RSUExampleScenario.node[95].appl 	NumberofCH 	0.054054054054054
scalar RSUExampleScenario.node[95].appl 	NumberofON 	0.37837837837838
scalar RSUExampleScenario.node[95].appl 	NumberofFN 	0.56756756756757
scalar RSUExampleScenario.node[95].veinsmobility 	startTime 	229
scalar RSUExampleScenario.node[95].veinsmobility 	totalTime 	221
scalar RSUExampleScenario.node[95].veinsmobility 	stopTime 	450
scalar RSUExampleScenario.node[95].veinsmobility 	minSpeed 	0
scalar RSUExampleScenario.node[95].veinsmobility 	maxSpeed 	13.865681826081
scalar RSUExampleScenario.node[95].veinsmobility 	totalDistance 	99.260592683054
scalar RSUExampleScenario.node[95].veinsmobility 	totalCO2Emission 	242.66293850421
scalar RSUExampleScenario.node[96].appl 	meanClusterNodes 	2
scalar RSUExampleScenario.node[96].appl 	meanClusterHeadUtility 	17.554606943895
scalar RSUExampleScenario.node[96].appl 	NumberofCH 	0.054054054054054
scalar RSUExampleScenario.node[96].appl 	NumberofON 	0.43243243243243
scalar RSUExampleScenario.node[96].appl 	NumberofFN 	0.51351351351351
scalar RSUExampleScenario.node[96].veinsmobility 	startTime 	231.4
scalar RSUExampleScenario.node[96].veinsmobility 	totalTime 	218.6
scalar RSUExampleScenario.node[96].veinsmobility 	stopTime 	450
scalar RSUExampleScenario.node[96].veinsmobility 	minSpeed 	0
scalar RSUExampleScenario.node[96].veinsmobility 	maxSpeed 	13.765063564604
scalar RSUExampleScenario.node[96].veinsmobility 	totalDistance 	83.654603159439
scalar RSUExampleScenario.node[96].veinsmobility 	totalCO2Emission 	239.71102917531
scalar RSUExampleScenario.node[97].appl 	meanClusterNodes 	5.5
scalar RSUExampleScenario.node[97].appl 	meanClusterHeadUtility 	18.103323371368
scalar RSUExampleScenario.node[97].appl 	NumberofCH 	0.054054054054054
scalar RSUExampleScenario.node[97].appl 	NumberofON 	0.27027027027027
scalar RSUExampleScenario.node[97].appl 	NumberofFN 	0.67567567567568
scalar RSUExampleScenario.node[97].veinsmobility 	startTime 	233.8
scalar RSUExampleScenario.node[97].veinsmobility 	totalTime 	216.2
scalar RSUExampleScenario.node[97].veinsmobility 	stopTime 	450
scalar RSUExampleScenario.node[97].veinsmobility 	minSpeed 	0
scalar RSUExampleScenario.node[97].veinsmobility 	maxSpeed 	12.395628707192
scalar RSUExampleScenario.node[97].veinsmobility 	totalDistance 	56.180413079953
scalar RSUExampleScenario.node[97].veinsmobility 	totalCO2Emission 	232.10991685264
scalar RSUExampleScenario.node[98].appl 	meanClusterNodes 	1
scalar RSUExampleScenario.node[98].appl 	meanClusterHeadUtility 	38.783128867397
scalar RSUExampleScenario.node[98].appl 	NumberofCH 	0.027027027027027
scalar RSUExampleScenario.node[98].appl 	NumberofON 	0.48648648648649
scalar RSUExampleScenario.node[98].appl 	NumberofFN 	0.48648648648649
scalar RSUExampleScenario.node[98].veinsmobility 	startTime 	236.2
scalar RSUExampleScenario.node[98].veinsmobility 	totalTime 	213.8
scalar RSUExampleScenario.node[98].veinsmobility 	stopTime 	450
scalar RSUExampleScenario.node[98].veinsmobility 	minSpeed 	0
scalar RSUExampleScenario.node[98].veinsmobility 	maxSpeed 	7.7985673189609
scalar RSUExampleScenario.node[98].veinsmobility 	totalDistance 	22.123708519428
scalar RSUExampleScenario.node[98].veinsmobility 	totalCO2Emission 	216.75282055599
scalar RSUExampleScenario.node[99].appl 	meanClusterNodes 	8.5
scalar RSUExampleScenario.node[99].appl 	meanClusterHeadUtility 	18.533898809523
scalar RSUExampleScenario.node[99].appl 	NumberofCH 	0.054054054054054
scalar RSUExampleScenario.node[99].appl 	NumberofON 	0.43243243243243
scalar RSUExampleScenario.node[99].appl 	NumberofFN 	0.51351351351351
scalar RSUExampleScenario.node[99].veinsmobility 	startTime 	238.6
scalar RSUExampleScenario.node[99].veinsmobility 	totalTime 	211.4
scalar RSUExampleScenario.node[99].veinsmobility 	stopTime 	450
scalar RSUExampleScenario.node[99].veinsmobility 	minSpeed 	0
scalar RSUExampleScenario.node[99].veinsmobility 	maxSpeed 	3.0189724701116
scalar RSUExampleScenario.node[99].veinsmobility 	totalDistance 	3.2459595755135
scalar RSUExampleScenario.node[99].veinsmobility 	totalCO2Emission 	207.05027615368
