version 2
run statistic-1883-20150313-04:55:24-23488
attr c 11
attr configname statistic
attr datetime 20150313-04:55:24
attr experiment statistic
attr inifile omnetpp.ini
attr iterationvars "$p=1/8, $c=11"
attr iterationvars2 "$p=1/8, $c=11, $repetition=83"
attr measurement "$p=1/8, $c=11"
attr network RSUExampleScenario
attr p 1/8
attr processid 23488
attr repetition 83
attr replication #83
attr resultdir results
attr runnumber 1883
attr seedset 1883

scalar . 	c 	11
scalar RSUExampleScenario.rsu[0].appl 	NumberofCH 	11
scalar RSUExampleScenario.rsu[0].appl 	NumberofON 	80
scalar RSUExampleScenario.rsu[0].appl 	NumberofFN 	9
scalar RSUExampleScenario.rsu[0].appl 	meanClusterNodes 	11
scalar RSUExampleScenario.rsu[0].appl 	varClusterNodes 	3.3166247903554
scalar RSUExampleScenario.rsu[0].appl 	sumCHutility 	419.18986622321
scalar RSUExampleScenario.rsu[0].appl 	meanCHutility 	11
scalar RSUExampleScenario.rsu[0].appl 	varCHutility 	3.3166247903554
scalar RSUExampleScenario.rsu[0].appl 	sumDiffCHutility 	-41.622162133221
scalar RSUExampleScenario.rsu[0].appl 	meanDiffCHutility 	11
scalar RSUExampleScenario.rsu[0].appl 	varDiffCHutility 	3.3166247903554
scalar RSUExampleScenario.rsu[0].appl 	expectedCHutility 	377.56770408999
scalar RSUExampleScenario.rsu[0].appl 	meanExpectedCHutility 	11
scalar RSUExampleScenario.rsu[0].appl 	varExpectedCHutility 	3.3166247903554
