version 2
run statistic-585-20150312-19:59:37-16372
attr c 24
attr configname statistic
attr datetime 20150312-19:59:37
attr experiment statistic
attr inifile omnetpp.ini
attr iterationvars "$p=1/20, $c=24"
attr iterationvars2 "$p=1/20, $c=24, $repetition=85"
attr measurement "$p=1/20, $c=24"
attr network RSUExampleScenario
attr p 1/20
attr processid 16372
attr repetition 85
attr replication #85
attr resultdir results
attr runnumber 585
attr seedset 585

scalar . 	c 	24
scalar RSUExampleScenario.rsu[0].appl 	NumberofCH 	4
scalar RSUExampleScenario.rsu[0].appl 	NumberofON 	77
scalar RSUExampleScenario.rsu[0].appl 	NumberofFN 	19
scalar RSUExampleScenario.rsu[0].appl 	meanClusterNodes 	4
scalar RSUExampleScenario.rsu[0].appl 	varClusterNodes 	2
scalar RSUExampleScenario.rsu[0].appl 	sumCHutility 	143.88889100906
scalar RSUExampleScenario.rsu[0].appl 	meanCHutility 	4
scalar RSUExampleScenario.rsu[0].appl 	varCHutility 	2
scalar RSUExampleScenario.rsu[0].appl 	sumDiffCHutility 	-7.9496273347007
scalar RSUExampleScenario.rsu[0].appl 	meanDiffCHutility 	4
scalar RSUExampleScenario.rsu[0].appl 	varDiffCHutility 	2
scalar RSUExampleScenario.rsu[0].appl 	expectedCHutility 	135.93926367435
scalar RSUExampleScenario.rsu[0].appl 	meanExpectedCHutility 	4
scalar RSUExampleScenario.rsu[0].appl 	varExpectedCHutility 	2
