version 2
run statistic-1082-20150312-23:21:09-21324
attr c 12
attr configname statistic
attr datetime 20150312-23:21:09
attr experiment statistic
attr inifile omnetpp.ini
attr iterationvars "$p=1/10, $c=12"
attr iterationvars2 "$p=1/10, $c=12, $repetition=82"
attr measurement "$p=1/10, $c=12"
attr network RSUExampleScenario
attr p 1/10
attr processid 21324
attr repetition 82
attr replication #82
attr resultdir results
attr runnumber 1082
attr seedset 1082

scalar . 	c 	12
scalar RSUExampleScenario.rsu[0].appl 	NumberofCH 	8
scalar RSUExampleScenario.rsu[0].appl 	NumberofON 	80
scalar RSUExampleScenario.rsu[0].appl 	NumberofFN 	12
scalar RSUExampleScenario.rsu[0].appl 	meanClusterNodes 	8
scalar RSUExampleScenario.rsu[0].appl 	varClusterNodes 	2.8284271247462
scalar RSUExampleScenario.rsu[0].appl 	sumCHutility 	294.84741107868
scalar RSUExampleScenario.rsu[0].appl 	meanCHutility 	8
scalar RSUExampleScenario.rsu[0].appl 	varCHutility 	2.8284271247462
scalar RSUExampleScenario.rsu[0].appl 	sumDiffCHutility 	-21.501324159735
scalar RSUExampleScenario.rsu[0].appl 	meanDiffCHutility 	8
scalar RSUExampleScenario.rsu[0].appl 	varDiffCHutility 	2.8284271247462
scalar RSUExampleScenario.rsu[0].appl 	expectedCHutility 	273.34608691895
scalar RSUExampleScenario.rsu[0].appl 	meanExpectedCHutility 	8
scalar RSUExampleScenario.rsu[0].appl 	varExpectedCHutility 	2.8284271247462
