version 2
run statistic2-61-20150318-12:04:23-9704
attr c 20
attr configname statistic2
attr datetime 20150318-12:04:23
attr experiment statistic2
attr inifile omnetpp.ini
attr iterationvars "$p=1/15, $c=20"
attr iterationvars2 "$p=1/15, $c=20, $repetition=1"
attr measurement "$p=1/15, $c=20"
attr network RSUExampleScenario
attr p 1/15
attr processid 9704
attr repetition 1
attr replication #1
attr resultdir results
attr runnumber 61
attr seedset 61

scalar . 	c 	20
scalar RSUExampleScenario.rsu[0].appl 	NumberofCH 	10
scalar RSUExampleScenario.rsu[0].appl 	NumberofON 	90
scalar RSUExampleScenario.rsu[0].appl 	NumberofFN 	0
scalar RSUExampleScenario.rsu[0].appl 	meanClusterNodes 	9
scalar RSUExampleScenario.rsu[0].appl 	varClusterNodes 	3.2557641192199
scalar RSUExampleScenario.rsu[0].appl 	sumCHutility 	372.0820095447
scalar RSUExampleScenario.rsu[0].appl 	meanCHutility 	37.20820095447
scalar RSUExampleScenario.rsu[0].appl 	varCHutility 	0.91897236367574
scalar RSUExampleScenario.rsu[0].appl 	sumDiffCHutility 	-31.893697912275
scalar RSUExampleScenario.rsu[0].appl 	meanDiffCHutility 	-3.1893697912275
scalar RSUExampleScenario.rsu[0].appl 	varDiffCHutility 	1.0260015839707
scalar RSUExampleScenario.rsu[0].appl 	expectedCHutility 	340.18831163243
scalar RSUExampleScenario.rsu[0].appl 	meanExpectedCHutility 	34.018831163243
scalar RSUExampleScenario.rsu[0].appl 	varExpectedCHutility 	0.58467856717526
