version 2
run statisticRVV-192-20150327-00:59:55-7116
attr c 8
attr configname statisticRVV
attr datetime 20150327-00:59:55
attr experiment statisticRVV
attr inifile omnetpp.ini
attr iterationvars "$sc=\"erlangen-medium.launchd.xml\", $p=1/8, $c=8"
attr iterationvars2 "$sc=\"erlangen-medium.launchd.xml\", $p=1/8, $c=8, $repetition=2"
attr measurement "$sc=\"erlangen-medium.launchd.xml\", $p=1/8, $c=8"
attr network RSUExampleScenario
attr p 1/8
attr processid 7116
attr repetition 2
attr replication #2
attr resultdir results
attr runnumber 192
attr sc "\"erlangen-medium.launchd.xml\""
attr seedset 192

scalar . 	c 	8
scalar RSUExampleScenario.node[0].veinsmobility 	startTime 	0.1
scalar RSUExampleScenario.node[0].veinsmobility 	totalTime 	264.3
scalar RSUExampleScenario.node[0].veinsmobility 	stopTime 	264.5
scalar RSUExampleScenario.node[0].veinsmobility 	minSpeed 	0.2501551041021
scalar RSUExampleScenario.node[0].veinsmobility 	maxSpeed 	13.999986464218
scalar RSUExampleScenario.node[0].veinsmobility 	totalDistance 	3409.6687386704
scalar RSUExampleScenario.node[0].veinsmobility 	totalCO2Emission 	694.57956616873
scalar RSUExampleScenario.node[1].veinsmobility 	startTime 	3.1
scalar RSUExampleScenario.node[1].veinsmobility 	totalTime 	265.5
scalar RSUExampleScenario.node[1].veinsmobility 	stopTime 	268.7
scalar RSUExampleScenario.node[1].veinsmobility 	minSpeed 	0.25472914465819
scalar RSUExampleScenario.node[1].veinsmobility 	maxSpeed 	13.999997537488
scalar RSUExampleScenario.node[1].veinsmobility 	totalDistance 	3409.4438619483
scalar RSUExampleScenario.node[1].veinsmobility 	totalCO2Emission 	691.01784286187
scalar RSUExampleScenario.node[2].veinsmobility 	startTime 	6.1
scalar RSUExampleScenario.node[2].veinsmobility 	totalTime 	266.1
scalar RSUExampleScenario.node[2].veinsmobility 	stopTime 	272.3
scalar RSUExampleScenario.node[2].veinsmobility 	minSpeed 	0.25373201372917
scalar RSUExampleScenario.node[2].veinsmobility 	maxSpeed 	13.999920268077
scalar RSUExampleScenario.node[2].veinsmobility 	totalDistance 	3409.3334935728
scalar RSUExampleScenario.node[2].veinsmobility 	totalCO2Emission 	691.42030363881
scalar RSUExampleScenario.node[3].veinsmobility 	startTime 	9.1
scalar RSUExampleScenario.node[3].veinsmobility 	totalTime 	266.5
scalar RSUExampleScenario.node[3].veinsmobility 	stopTime 	275.7
scalar RSUExampleScenario.node[3].veinsmobility 	minSpeed 	0.25920396760223
scalar RSUExampleScenario.node[3].veinsmobility 	maxSpeed 	13.999643980893
scalar RSUExampleScenario.node[3].veinsmobility 	totalDistance 	3409.3629084254
scalar RSUExampleScenario.node[3].veinsmobility 	totalCO2Emission 	693.02984710307
scalar RSUExampleScenario.node[4].veinsmobility 	startTime 	12.1
scalar RSUExampleScenario.node[4].veinsmobility 	totalTime 	266.8
scalar RSUExampleScenario.node[4].veinsmobility 	stopTime 	279
scalar RSUExampleScenario.node[4].veinsmobility 	minSpeed 	0.25697802597983
scalar RSUExampleScenario.node[4].veinsmobility 	maxSpeed 	13.999816545236
scalar RSUExampleScenario.node[4].veinsmobility 	totalDistance 	3413.3147324001
scalar RSUExampleScenario.node[4].veinsmobility 	totalCO2Emission 	691.18590384182
scalar RSUExampleScenario.node[5].veinsmobility 	startTime 	15.1
scalar RSUExampleScenario.node[5].veinsmobility 	totalTime 	266.9
scalar RSUExampleScenario.node[5].veinsmobility 	stopTime 	282.1
scalar RSUExampleScenario.node[5].veinsmobility 	minSpeed 	0.2568971274111
scalar RSUExampleScenario.node[5].veinsmobility 	maxSpeed 	13.999930546388
scalar RSUExampleScenario.node[5].veinsmobility 	totalDistance 	3409.2618159586
scalar RSUExampleScenario.node[5].veinsmobility 	totalCO2Emission 	694.89617786643
scalar RSUExampleScenario.node[10].veinsmobility 	startTime 	30.1
scalar RSUExampleScenario.node[10].veinsmobility 	totalTime 	253.6
scalar RSUExampleScenario.node[10].veinsmobility 	stopTime 	283.71888142971
scalar RSUExampleScenario.node[10].veinsmobility 	minSpeed 	0.25166080912203
scalar RSUExampleScenario.node[10].veinsmobility 	maxSpeed 	13.99998095941
scalar RSUExampleScenario.node[10].veinsmobility 	totalDistance 	3275.4468609408
scalar RSUExampleScenario.node[10].veinsmobility 	totalCO2Emission 	661.20904007011
scalar RSUExampleScenario.node[11].veinsmobility 	startTime 	33.1
scalar RSUExampleScenario.node[11].veinsmobility 	totalTime 	250.6
scalar RSUExampleScenario.node[11].veinsmobility 	stopTime 	283.71888142971
scalar RSUExampleScenario.node[11].veinsmobility 	minSpeed 	0.25981200904329
scalar RSUExampleScenario.node[11].veinsmobility 	maxSpeed 	13.999885039171
scalar RSUExampleScenario.node[11].veinsmobility 	totalDistance 	3231.0500096713
scalar RSUExampleScenario.node[11].veinsmobility 	totalCO2Emission 	653.97748435062
scalar RSUExampleScenario.node[12].veinsmobility 	startTime 	36.1
scalar RSUExampleScenario.node[12].veinsmobility 	totalTime 	247.6
scalar RSUExampleScenario.node[12].veinsmobility 	stopTime 	283.71888142971
scalar RSUExampleScenario.node[12].veinsmobility 	minSpeed 	0.25223096786905
scalar RSUExampleScenario.node[12].veinsmobility 	maxSpeed 	13.999991552387
scalar RSUExampleScenario.node[12].veinsmobility 	totalDistance 	3192.3114844298
scalar RSUExampleScenario.node[12].veinsmobility 	totalCO2Emission 	644.29741563317
scalar RSUExampleScenario.node[13].veinsmobility 	startTime 	39.1
scalar RSUExampleScenario.node[13].veinsmobility 	totalTime 	244.6
scalar RSUExampleScenario.node[13].veinsmobility 	stopTime 	283.71888142971
scalar RSUExampleScenario.node[13].veinsmobility 	minSpeed 	0.25210595270619
scalar RSUExampleScenario.node[13].veinsmobility 	maxSpeed 	13.999947317606
scalar RSUExampleScenario.node[13].veinsmobility 	totalDistance 	3148.3053219824
scalar RSUExampleScenario.node[13].veinsmobility 	totalCO2Emission 	637.01960537144
scalar RSUExampleScenario.node[14].veinsmobility 	startTime 	42.1
scalar RSUExampleScenario.node[14].veinsmobility 	totalTime 	241.6
scalar RSUExampleScenario.node[14].veinsmobility 	stopTime 	283.71888142971
scalar RSUExampleScenario.node[14].veinsmobility 	minSpeed 	0.25488027713494
scalar RSUExampleScenario.node[14].veinsmobility 	maxSpeed 	13.99999425217
scalar RSUExampleScenario.node[14].veinsmobility 	totalDistance 	3112.8563220645
scalar RSUExampleScenario.node[14].veinsmobility 	totalCO2Emission 	631.85541071972
scalar RSUExampleScenario.node[15].veinsmobility 	startTime 	45.1
scalar RSUExampleScenario.node[15].veinsmobility 	totalTime 	238.6
scalar RSUExampleScenario.node[15].veinsmobility 	stopTime 	283.71888142971
scalar RSUExampleScenario.node[15].veinsmobility 	minSpeed 	0.25253516737046
scalar RSUExampleScenario.node[15].veinsmobility 	maxSpeed 	13.999998554704
scalar RSUExampleScenario.node[15].veinsmobility 	totalDistance 	3067.9834255133
scalar RSUExampleScenario.node[15].veinsmobility 	totalCO2Emission 	623.76063312188
scalar RSUExampleScenario.node[16].veinsmobility 	startTime 	48.1
scalar RSUExampleScenario.node[16].veinsmobility 	totalTime 	235.6
scalar RSUExampleScenario.node[16].veinsmobility 	stopTime 	283.71888142971
scalar RSUExampleScenario.node[16].veinsmobility 	minSpeed 	0.25878421077784
scalar RSUExampleScenario.node[16].veinsmobility 	maxSpeed 	13.999994062844
scalar RSUExampleScenario.node[16].veinsmobility 	totalDistance 	3029.5273568343
scalar RSUExampleScenario.node[16].veinsmobility 	totalCO2Emission 	619.18426094498
scalar RSUExampleScenario.node[17].veinsmobility 	startTime 	51.1
scalar RSUExampleScenario.node[17].veinsmobility 	totalTime 	232.6
scalar RSUExampleScenario.node[17].veinsmobility 	stopTime 	283.71888142971
scalar RSUExampleScenario.node[17].veinsmobility 	minSpeed 	0.25894424120942
scalar RSUExampleScenario.node[17].veinsmobility 	maxSpeed 	13.999981986675
scalar RSUExampleScenario.node[17].veinsmobility 	totalDistance 	2983.5866532222
scalar RSUExampleScenario.node[17].veinsmobility 	totalCO2Emission 	609.21948041736
scalar RSUExampleScenario.node[18].veinsmobility 	startTime 	54.1
scalar RSUExampleScenario.node[18].veinsmobility 	totalTime 	229.6
scalar RSUExampleScenario.node[18].veinsmobility 	stopTime 	283.71888142971
scalar RSUExampleScenario.node[18].veinsmobility 	minSpeed 	0.25383839354524
scalar RSUExampleScenario.node[18].veinsmobility 	maxSpeed 	13.999959136134
scalar RSUExampleScenario.node[18].veinsmobility 	totalDistance 	2941.8053311494
scalar RSUExampleScenario.node[18].veinsmobility 	totalCO2Emission 	597.26006286617
scalar RSUExampleScenario.node[19].veinsmobility 	startTime 	57.1
scalar RSUExampleScenario.node[19].veinsmobility 	totalTime 	226.6
scalar RSUExampleScenario.node[19].veinsmobility 	stopTime 	283.71888142971
scalar RSUExampleScenario.node[19].veinsmobility 	minSpeed 	0.25750011989218
scalar RSUExampleScenario.node[19].veinsmobility 	maxSpeed 	13.99992943967
scalar RSUExampleScenario.node[19].veinsmobility 	totalDistance 	2918.6299004433
scalar RSUExampleScenario.node[19].veinsmobility 	totalCO2Emission 	577.10392243975
scalar RSUExampleScenario.node[20].veinsmobility 	startTime 	60.1
scalar RSUExampleScenario.node[20].veinsmobility 	totalTime 	223.6
scalar RSUExampleScenario.node[20].veinsmobility 	stopTime 	283.71888142971
scalar RSUExampleScenario.node[20].veinsmobility 	minSpeed 	0.25356401022943
scalar RSUExampleScenario.node[20].veinsmobility 	maxSpeed 	13.999982367931
scalar RSUExampleScenario.node[20].veinsmobility 	totalDistance 	2898.3050980218
scalar RSUExampleScenario.node[20].veinsmobility 	totalCO2Emission 	574.23531930226
scalar RSUExampleScenario.node[21].veinsmobility 	startTime 	63.1
scalar RSUExampleScenario.node[21].veinsmobility 	totalTime 	220.6
scalar RSUExampleScenario.node[21].veinsmobility 	stopTime 	283.71888142971
scalar RSUExampleScenario.node[21].veinsmobility 	minSpeed 	0.25130292406073
scalar RSUExampleScenario.node[21].veinsmobility 	maxSpeed 	13.999992510793
scalar RSUExampleScenario.node[21].veinsmobility 	totalDistance 	2872.9456112971
scalar RSUExampleScenario.node[21].veinsmobility 	totalCO2Emission 	571.57890838696
scalar RSUExampleScenario.node[22].veinsmobility 	startTime 	66.1
scalar RSUExampleScenario.node[22].veinsmobility 	totalTime 	217.6
scalar RSUExampleScenario.node[22].veinsmobility 	stopTime 	283.71888142971
scalar RSUExampleScenario.node[22].veinsmobility 	minSpeed 	0.25992460741056
scalar RSUExampleScenario.node[22].veinsmobility 	maxSpeed 	13.999850874003
scalar RSUExampleScenario.node[22].veinsmobility 	totalDistance 	2826.1583036609
scalar RSUExampleScenario.node[22].veinsmobility 	totalCO2Emission 	564.86264833229
scalar RSUExampleScenario.node[23].veinsmobility 	startTime 	69.1
scalar RSUExampleScenario.node[23].veinsmobility 	totalTime 	214.6
scalar RSUExampleScenario.node[23].veinsmobility 	stopTime 	283.71888142971
scalar RSUExampleScenario.node[23].veinsmobility 	minSpeed 	0.25262253377447
scalar RSUExampleScenario.node[23].veinsmobility 	maxSpeed 	13.999886549604
scalar RSUExampleScenario.node[23].veinsmobility 	totalDistance 	2788.8167227678
scalar RSUExampleScenario.node[23].veinsmobility 	totalCO2Emission 	555.26939316243
scalar RSUExampleScenario.node[24].veinsmobility 	startTime 	72.1
scalar RSUExampleScenario.node[24].veinsmobility 	totalTime 	211.6
scalar RSUExampleScenario.node[24].veinsmobility 	stopTime 	283.71888142971
scalar RSUExampleScenario.node[24].veinsmobility 	minSpeed 	0.25929310879367
scalar RSUExampleScenario.node[24].veinsmobility 	maxSpeed 	13.999984077588
scalar RSUExampleScenario.node[24].veinsmobility 	totalDistance 	2743.0371180806
scalar RSUExampleScenario.node[24].veinsmobility 	totalCO2Emission 	547.84633701135
scalar RSUExampleScenario.node[25].veinsmobility 	startTime 	75.1
scalar RSUExampleScenario.node[25].veinsmobility 	totalTime 	208.6
scalar RSUExampleScenario.node[25].veinsmobility 	stopTime 	283.71888142971
scalar RSUExampleScenario.node[25].veinsmobility 	minSpeed 	0.25317076038592
scalar RSUExampleScenario.node[25].veinsmobility 	maxSpeed 	13.999976978686
scalar RSUExampleScenario.node[25].veinsmobility 	totalDistance 	2705.547814883
scalar RSUExampleScenario.node[25].veinsmobility 	totalCO2Emission 	544.19636941492
scalar RSUExampleScenario.node[26].veinsmobility 	startTime 	78.1
scalar RSUExampleScenario.node[26].veinsmobility 	totalTime 	205.6
scalar RSUExampleScenario.node[26].veinsmobility 	stopTime 	283.71888142971
scalar RSUExampleScenario.node[26].veinsmobility 	minSpeed 	0.25180808866303
scalar RSUExampleScenario.node[26].veinsmobility 	maxSpeed 	13.999998543959
scalar RSUExampleScenario.node[26].veinsmobility 	totalDistance 	2661.8837634318
scalar RSUExampleScenario.node[26].veinsmobility 	totalCO2Emission 	536.23449116836
scalar RSUExampleScenario.node[27].veinsmobility 	startTime 	81.1
scalar RSUExampleScenario.node[27].veinsmobility 	totalTime 	202.6
scalar RSUExampleScenario.node[27].veinsmobility 	stopTime 	283.71888142971
scalar RSUExampleScenario.node[27].veinsmobility 	minSpeed 	0.25861727676401
scalar RSUExampleScenario.node[27].veinsmobility 	maxSpeed 	13.999951991558
scalar RSUExampleScenario.node[27].veinsmobility 	totalDistance 	2622.8464169765
scalar RSUExampleScenario.node[27].veinsmobility 	totalCO2Emission 	524.31783500828
scalar RSUExampleScenario.node[28].veinsmobility 	startTime 	84.1
scalar RSUExampleScenario.node[28].veinsmobility 	totalTime 	199.6
scalar RSUExampleScenario.node[28].veinsmobility 	stopTime 	283.71888142971
scalar RSUExampleScenario.node[28].veinsmobility 	minSpeed 	0.25286166057363
scalar RSUExampleScenario.node[28].veinsmobility 	maxSpeed 	13.999938302741
scalar RSUExampleScenario.node[28].veinsmobility 	totalDistance 	2572.2073744926
scalar RSUExampleScenario.node[28].veinsmobility 	totalCO2Emission 	524.74379339259
scalar RSUExampleScenario.node[29].veinsmobility 	startTime 	87.1
scalar RSUExampleScenario.node[29].veinsmobility 	totalTime 	196.6
scalar RSUExampleScenario.node[29].veinsmobility 	stopTime 	283.71888142971
scalar RSUExampleScenario.node[29].veinsmobility 	minSpeed 	0.25718294095271
scalar RSUExampleScenario.node[29].veinsmobility 	maxSpeed 	13.99996500331
scalar RSUExampleScenario.node[29].veinsmobility 	totalDistance 	2537.55776685
scalar RSUExampleScenario.node[29].veinsmobility 	totalCO2Emission 	514.88402202317
scalar RSUExampleScenario.node[30].veinsmobility 	startTime 	90.1
scalar RSUExampleScenario.node[30].veinsmobility 	totalTime 	193.6
scalar RSUExampleScenario.node[30].veinsmobility 	stopTime 	283.71888142971
scalar RSUExampleScenario.node[30].veinsmobility 	minSpeed 	0.2479298472777
scalar RSUExampleScenario.node[30].veinsmobility 	maxSpeed 	13.999937503031
scalar RSUExampleScenario.node[30].veinsmobility 	totalDistance 	2488.902730559
scalar RSUExampleScenario.node[30].veinsmobility 	totalCO2Emission 	508.39982598593
scalar RSUExampleScenario.node[31].veinsmobility 	startTime 	93.1
scalar RSUExampleScenario.node[31].veinsmobility 	totalTime 	190.6
scalar RSUExampleScenario.node[31].veinsmobility 	stopTime 	283.71888142971
scalar RSUExampleScenario.node[31].veinsmobility 	minSpeed 	0.25041070042853
scalar RSUExampleScenario.node[31].veinsmobility 	maxSpeed 	13.99986639942
scalar RSUExampleScenario.node[31].veinsmobility 	totalDistance 	2449.9319959775
scalar RSUExampleScenario.node[31].veinsmobility 	totalCO2Emission 	500.19945428032
scalar RSUExampleScenario.node[32].veinsmobility 	startTime 	96.1
scalar RSUExampleScenario.node[32].veinsmobility 	totalTime 	187.6
scalar RSUExampleScenario.node[32].veinsmobility 	stopTime 	283.71888142971
scalar RSUExampleScenario.node[32].veinsmobility 	minSpeed 	0.25342284130398
scalar RSUExampleScenario.node[32].veinsmobility 	maxSpeed 	13.999953381675
scalar RSUExampleScenario.node[32].veinsmobility 	totalDistance 	2404.1139320726
scalar RSUExampleScenario.node[32].veinsmobility 	totalCO2Emission 	493.28339652511
scalar RSUExampleScenario.node[33].veinsmobility 	startTime 	99.1
scalar RSUExampleScenario.node[33].veinsmobility 	totalTime 	184.6
scalar RSUExampleScenario.node[33].veinsmobility 	stopTime 	283.71888142971
scalar RSUExampleScenario.node[33].veinsmobility 	minSpeed 	0.25620685335808
scalar RSUExampleScenario.node[33].veinsmobility 	maxSpeed 	13.999790214966
scalar RSUExampleScenario.node[33].veinsmobility 	totalDistance 	2366.9686359784
scalar RSUExampleScenario.node[33].veinsmobility 	totalCO2Emission 	487.59358849273
scalar RSUExampleScenario.node[34].veinsmobility 	startTime 	102.1
scalar RSUExampleScenario.node[34].veinsmobility 	totalTime 	181.6
scalar RSUExampleScenario.node[34].veinsmobility 	stopTime 	283.71888142971
scalar RSUExampleScenario.node[34].veinsmobility 	minSpeed 	0.24807104920433
scalar RSUExampleScenario.node[34].veinsmobility 	maxSpeed 	13.999976610718
scalar RSUExampleScenario.node[34].veinsmobility 	totalDistance 	2320.9497179176
scalar RSUExampleScenario.node[34].veinsmobility 	totalCO2Emission 	475.57033594725
scalar RSUExampleScenario.node[35].veinsmobility 	startTime 	105.1
scalar RSUExampleScenario.node[35].veinsmobility 	totalTime 	178.6
scalar RSUExampleScenario.node[35].veinsmobility 	stopTime 	283.71888142971
scalar RSUExampleScenario.node[35].veinsmobility 	minSpeed 	0.24717081605224
scalar RSUExampleScenario.node[35].veinsmobility 	maxSpeed 	13.999954881787
scalar RSUExampleScenario.node[35].veinsmobility 	totalDistance 	2284.5025261608
scalar RSUExampleScenario.node[35].veinsmobility 	totalCO2Emission 	470.03454454756
scalar RSUExampleScenario.node[36].veinsmobility 	startTime 	108.1
scalar RSUExampleScenario.node[36].veinsmobility 	totalTime 	175.6
scalar RSUExampleScenario.node[36].veinsmobility 	stopTime 	283.71888142971
scalar RSUExampleScenario.node[36].veinsmobility 	minSpeed 	0.24744067207677
scalar RSUExampleScenario.node[36].veinsmobility 	maxSpeed 	13.999992436606
scalar RSUExampleScenario.node[36].veinsmobility 	totalDistance 	2238.7455536818
scalar RSUExampleScenario.node[36].veinsmobility 	totalCO2Emission 	462.05900807182
scalar RSUExampleScenario.node[37].veinsmobility 	startTime 	111.1
scalar RSUExampleScenario.node[37].veinsmobility 	totalTime 	172.6
scalar RSUExampleScenario.node[37].veinsmobility 	stopTime 	283.71888142971
scalar RSUExampleScenario.node[37].veinsmobility 	minSpeed 	0.24801543215662
scalar RSUExampleScenario.node[37].veinsmobility 	maxSpeed 	13.999977838236
scalar RSUExampleScenario.node[37].veinsmobility 	totalDistance 	2203.2290530051
scalar RSUExampleScenario.node[37].veinsmobility 	totalCO2Emission 	457.99346949607
scalar RSUExampleScenario.node[38].veinsmobility 	startTime 	114.1
scalar RSUExampleScenario.node[38].veinsmobility 	totalTime 	169.6
scalar RSUExampleScenario.node[38].veinsmobility 	stopTime 	283.71888142971
scalar RSUExampleScenario.node[38].veinsmobility 	minSpeed 	0.2555133853124
scalar RSUExampleScenario.node[38].veinsmobility 	maxSpeed 	13.999838372932
scalar RSUExampleScenario.node[38].veinsmobility 	totalDistance 	2153.9783007896
scalar RSUExampleScenario.node[38].veinsmobility 	totalCO2Emission 	452.33231679238
scalar RSUExampleScenario.node[39].veinsmobility 	startTime 	117.1
scalar RSUExampleScenario.node[39].veinsmobility 	totalTime 	166.6
scalar RSUExampleScenario.node[39].veinsmobility 	stopTime 	283.71888142971
scalar RSUExampleScenario.node[39].veinsmobility 	minSpeed 	0.25506852789083
scalar RSUExampleScenario.node[39].veinsmobility 	maxSpeed 	13.999835890019
scalar RSUExampleScenario.node[39].veinsmobility 	totalDistance 	2116.3854774277
scalar RSUExampleScenario.node[39].veinsmobility 	totalCO2Emission 	444.9400564445
scalar RSUExampleScenario.node[40].veinsmobility 	startTime 	120.1
scalar RSUExampleScenario.node[40].veinsmobility 	totalTime 	163.6
scalar RSUExampleScenario.node[40].veinsmobility 	stopTime 	283.71888142971
scalar RSUExampleScenario.node[40].veinsmobility 	minSpeed 	0.25631199666648
scalar RSUExampleScenario.node[40].veinsmobility 	maxSpeed 	13.999800166625
scalar RSUExampleScenario.node[40].veinsmobility 	totalDistance 	2070.4224916631
scalar RSUExampleScenario.node[40].veinsmobility 	totalCO2Emission 	435.52163048974
scalar RSUExampleScenario.node[41].veinsmobility 	startTime 	123.1
scalar RSUExampleScenario.node[41].veinsmobility 	totalTime 	160.6
scalar RSUExampleScenario.node[41].veinsmobility 	stopTime 	283.71888142971
scalar RSUExampleScenario.node[41].veinsmobility 	minSpeed 	0.25619664717559
scalar RSUExampleScenario.node[41].veinsmobility 	maxSpeed 	13.999998004674
scalar RSUExampleScenario.node[41].veinsmobility 	totalDistance 	2030.6519399635
scalar RSUExampleScenario.node[41].veinsmobility 	totalCO2Emission 	429.72857961436
scalar RSUExampleScenario.node[42].veinsmobility 	startTime 	126.1
scalar RSUExampleScenario.node[42].veinsmobility 	totalTime 	157.6
scalar RSUExampleScenario.node[42].veinsmobility 	stopTime 	283.71888142971
scalar RSUExampleScenario.node[42].veinsmobility 	minSpeed 	0.25550829383498
scalar RSUExampleScenario.node[42].veinsmobility 	maxSpeed 	13.999791433858
scalar RSUExampleScenario.node[42].veinsmobility 	totalDistance 	1988.7991468191
scalar RSUExampleScenario.node[42].veinsmobility 	totalCO2Emission 	424.85900980339
scalar RSUExampleScenario.node[43].veinsmobility 	startTime 	129.1
scalar RSUExampleScenario.node[43].veinsmobility 	totalTime 	154.6
scalar RSUExampleScenario.node[43].veinsmobility 	stopTime 	283.71888142971
scalar RSUExampleScenario.node[43].veinsmobility 	minSpeed 	0.2578940411855
scalar RSUExampleScenario.node[43].veinsmobility 	maxSpeed 	13.999763541548
scalar RSUExampleScenario.node[43].veinsmobility 	totalDistance 	1945.1321403394
scalar RSUExampleScenario.node[43].veinsmobility 	totalCO2Emission 	418.16816851172
scalar RSUExampleScenario.node[44].veinsmobility 	startTime 	132.1
scalar RSUExampleScenario.node[44].veinsmobility 	totalTime 	151.6
scalar RSUExampleScenario.node[44].veinsmobility 	stopTime 	283.71888142971
scalar RSUExampleScenario.node[44].veinsmobility 	minSpeed 	0.25240033933637
scalar RSUExampleScenario.node[44].veinsmobility 	maxSpeed 	13.999992920924
scalar RSUExampleScenario.node[44].veinsmobility 	totalDistance 	1903.1411687789
scalar RSUExampleScenario.node[44].veinsmobility 	totalCO2Emission 	409.70111255517
scalar RSUExampleScenario.node[45].veinsmobility 	startTime 	135.1
scalar RSUExampleScenario.node[45].veinsmobility 	totalTime 	148.6
scalar RSUExampleScenario.node[45].veinsmobility 	stopTime 	283.71888142971
scalar RSUExampleScenario.node[45].veinsmobility 	minSpeed 	0.25139354707883
scalar RSUExampleScenario.node[45].veinsmobility 	maxSpeed 	13.999986647218
scalar RSUExampleScenario.node[45].veinsmobility 	totalDistance 	1863.053899725
scalar RSUExampleScenario.node[45].veinsmobility 	totalCO2Emission 	399.35973328916
scalar RSUExampleScenario.node[46].veinsmobility 	startTime 	138.1
scalar RSUExampleScenario.node[46].veinsmobility 	totalTime 	145.6
scalar RSUExampleScenario.node[46].veinsmobility 	stopTime 	283.71888142971
scalar RSUExampleScenario.node[46].veinsmobility 	minSpeed 	0.2488996430242
scalar RSUExampleScenario.node[46].veinsmobility 	maxSpeed 	13.999938201192
scalar RSUExampleScenario.node[46].veinsmobility 	totalDistance 	1821.6491533634
scalar RSUExampleScenario.node[46].veinsmobility 	totalCO2Emission 	393.86702429078
scalar RSUExampleScenario.node[47].veinsmobility 	startTime 	141.1
scalar RSUExampleScenario.node[47].veinsmobility 	totalTime 	142.6
scalar RSUExampleScenario.node[47].veinsmobility 	stopTime 	283.71888142971
scalar RSUExampleScenario.node[47].veinsmobility 	minSpeed 	0.25621888790838
scalar RSUExampleScenario.node[47].veinsmobility 	maxSpeed 	13.999703673595
scalar RSUExampleScenario.node[47].veinsmobility 	totalDistance 	1776.7361781476
scalar RSUExampleScenario.node[47].veinsmobility 	totalCO2Emission 	387.47259377889
scalar RSUExampleScenario.node[48].veinsmobility 	startTime 	144.1
scalar RSUExampleScenario.node[48].veinsmobility 	totalTime 	139.6
scalar RSUExampleScenario.node[48].veinsmobility 	stopTime 	283.71888142971
scalar RSUExampleScenario.node[48].veinsmobility 	minSpeed 	0.25865852346597
scalar RSUExampleScenario.node[48].veinsmobility 	maxSpeed 	13.999991741653
scalar RSUExampleScenario.node[48].veinsmobility 	totalDistance 	1736.3439196385
scalar RSUExampleScenario.node[48].veinsmobility 	totalCO2Emission 	379.80652493638
scalar RSUExampleScenario.node[49].veinsmobility 	startTime 	147.1
scalar RSUExampleScenario.node[49].veinsmobility 	totalTime 	136.6
scalar RSUExampleScenario.node[49].veinsmobility 	stopTime 	283.71888142971
scalar RSUExampleScenario.node[49].veinsmobility 	minSpeed 	0.25692162512452
scalar RSUExampleScenario.node[49].veinsmobility 	maxSpeed 	13.99979863558
scalar RSUExampleScenario.node[49].veinsmobility 	totalDistance 	1693.6280850237
scalar RSUExampleScenario.node[49].veinsmobility 	totalCO2Emission 	375.14268019805
scalar RSUExampleScenario.node[50].veinsmobility 	startTime 	150.1
scalar RSUExampleScenario.node[50].veinsmobility 	totalTime 	133.6
scalar RSUExampleScenario.node[50].veinsmobility 	stopTime 	283.71888142971
scalar RSUExampleScenario.node[50].veinsmobility 	minSpeed 	0.25240407047677
scalar RSUExampleScenario.node[50].veinsmobility 	maxSpeed 	13.999905372446
scalar RSUExampleScenario.node[50].veinsmobility 	totalDistance 	1651.2391711227
scalar RSUExampleScenario.node[50].veinsmobility 	totalCO2Emission 	364.53182614486
scalar RSUExampleScenario.node[51].veinsmobility 	startTime 	153.1
scalar RSUExampleScenario.node[51].veinsmobility 	totalTime 	130.6
scalar RSUExampleScenario.node[51].veinsmobility 	stopTime 	283.71888142971
scalar RSUExampleScenario.node[51].veinsmobility 	minSpeed 	0.25976635094918
scalar RSUExampleScenario.node[51].veinsmobility 	maxSpeed 	13.999977511221
scalar RSUExampleScenario.node[51].veinsmobility 	totalDistance 	1610.905862183
scalar RSUExampleScenario.node[51].veinsmobility 	totalCO2Emission 	358.37996839076
scalar RSUExampleScenario.node[52].veinsmobility 	startTime 	156.1
scalar RSUExampleScenario.node[52].veinsmobility 	totalTime 	127.6
scalar RSUExampleScenario.node[52].veinsmobility 	stopTime 	283.71888142971
scalar RSUExampleScenario.node[52].veinsmobility 	minSpeed 	0.24965828092024
scalar RSUExampleScenario.node[52].veinsmobility 	maxSpeed 	13.999966482869
scalar RSUExampleScenario.node[52].veinsmobility 	totalDistance 	1569.4620675737
scalar RSUExampleScenario.node[52].veinsmobility 	totalCO2Emission 	349.3286755161
scalar RSUExampleScenario.node[53].veinsmobility 	startTime 	159.1
scalar RSUExampleScenario.node[53].veinsmobility 	totalTime 	124.6
scalar RSUExampleScenario.node[53].veinsmobility 	stopTime 	283.71888142971
scalar RSUExampleScenario.node[53].veinsmobility 	minSpeed 	0.25377222793875
scalar RSUExampleScenario.node[53].veinsmobility 	maxSpeed 	13.999757023216
scalar RSUExampleScenario.node[53].veinsmobility 	totalDistance 	1528.0107362345
scalar RSUExampleScenario.node[53].veinsmobility 	totalCO2Emission 	344.55858213864
scalar RSUExampleScenario.node[54].veinsmobility 	startTime 	162.1
scalar RSUExampleScenario.node[54].veinsmobility 	totalTime 	121.6
scalar RSUExampleScenario.node[54].veinsmobility 	stopTime 	283.71888142971
scalar RSUExampleScenario.node[54].veinsmobility 	minSpeed 	0.25286356207496
scalar RSUExampleScenario.node[54].veinsmobility 	maxSpeed 	13.999570234374
scalar RSUExampleScenario.node[54].veinsmobility 	totalDistance 	1485.0534482832
scalar RSUExampleScenario.node[54].veinsmobility 	totalCO2Emission 	336.83032193341
scalar RSUExampleScenario.node[55].veinsmobility 	startTime 	165.1
scalar RSUExampleScenario.node[55].veinsmobility 	totalTime 	118.6
scalar RSUExampleScenario.node[55].veinsmobility 	stopTime 	283.71888142971
scalar RSUExampleScenario.node[55].veinsmobility 	minSpeed 	0.25419120430318
scalar RSUExampleScenario.node[55].veinsmobility 	maxSpeed 	13.999950405939
scalar RSUExampleScenario.node[55].veinsmobility 	totalDistance 	1442.4696002052
scalar RSUExampleScenario.node[55].veinsmobility 	totalCO2Emission 	331.1357068898
scalar RSUExampleScenario.node[56].veinsmobility 	startTime 	168.1
scalar RSUExampleScenario.node[56].veinsmobility 	totalTime 	115.6
scalar RSUExampleScenario.node[56].veinsmobility 	stopTime 	283.71888142971
scalar RSUExampleScenario.node[56].veinsmobility 	minSpeed 	0.24858274045261
scalar RSUExampleScenario.node[56].veinsmobility 	maxSpeed 	13.999728285249
scalar RSUExampleScenario.node[56].veinsmobility 	totalDistance 	1400.9558542362
scalar RSUExampleScenario.node[56].veinsmobility 	totalCO2Emission 	325.11230776057
scalar RSUExampleScenario.node[57].veinsmobility 	startTime 	171.1
scalar RSUExampleScenario.node[57].veinsmobility 	totalTime 	112.6
scalar RSUExampleScenario.node[57].veinsmobility 	stopTime 	283.71888142971
scalar RSUExampleScenario.node[57].veinsmobility 	minSpeed 	0.25628799243318
scalar RSUExampleScenario.node[57].veinsmobility 	maxSpeed 	13.999636011575
scalar RSUExampleScenario.node[57].veinsmobility 	totalDistance 	1359.0665043933
scalar RSUExampleScenario.node[57].veinsmobility 	totalCO2Emission 	313.55246922034
scalar RSUExampleScenario.node[58].veinsmobility 	startTime 	174.1
scalar RSUExampleScenario.node[58].veinsmobility 	totalTime 	109.6
scalar RSUExampleScenario.node[58].veinsmobility 	stopTime 	283.71888142971
scalar RSUExampleScenario.node[58].veinsmobility 	minSpeed 	0.25201090397616
scalar RSUExampleScenario.node[58].veinsmobility 	maxSpeed 	13.999821906181
scalar RSUExampleScenario.node[58].veinsmobility 	totalDistance 	1319.1057984859
scalar RSUExampleScenario.node[58].veinsmobility 	totalCO2Emission 	311.16338240484
scalar RSUExampleScenario.node[59].veinsmobility 	startTime 	177.1
scalar RSUExampleScenario.node[59].veinsmobility 	totalTime 	106.6
scalar RSUExampleScenario.node[59].veinsmobility 	stopTime 	283.71888142971
scalar RSUExampleScenario.node[59].veinsmobility 	minSpeed 	0.25694783723471
scalar RSUExampleScenario.node[59].veinsmobility 	maxSpeed 	13.99974850405
scalar RSUExampleScenario.node[59].veinsmobility 	totalDistance 	1277.3826055339
scalar RSUExampleScenario.node[59].veinsmobility 	totalCO2Emission 	304.5974121096
scalar RSUExampleScenario.node[6].veinsmobility 	startTime 	18.1
scalar RSUExampleScenario.node[6].veinsmobility 	totalTime 	265.6
scalar RSUExampleScenario.node[6].veinsmobility 	stopTime 	283.71888142971
scalar RSUExampleScenario.node[6].veinsmobility 	minSpeed 	0.25804767664592
scalar RSUExampleScenario.node[6].veinsmobility 	maxSpeed 	13.999924753278
scalar RSUExampleScenario.node[6].veinsmobility 	totalDistance 	3401.2507426585
scalar RSUExampleScenario.node[6].veinsmobility 	totalCO2Emission 	686.23995320083
scalar RSUExampleScenario.node[60].veinsmobility 	startTime 	180.1
scalar RSUExampleScenario.node[60].veinsmobility 	totalTime 	103.6
scalar RSUExampleScenario.node[60].veinsmobility 	stopTime 	283.71888142971
scalar RSUExampleScenario.node[60].veinsmobility 	minSpeed 	0.25558056993294
scalar RSUExampleScenario.node[60].veinsmobility 	maxSpeed 	13.999739255547
scalar RSUExampleScenario.node[60].veinsmobility 	totalDistance 	1236.0317399934
scalar RSUExampleScenario.node[60].veinsmobility 	totalCO2Emission 	295.21363359106
scalar RSUExampleScenario.node[61].veinsmobility 	startTime 	183.1
scalar RSUExampleScenario.node[61].veinsmobility 	totalTime 	100.6
scalar RSUExampleScenario.node[61].veinsmobility 	stopTime 	283.71888142971
scalar RSUExampleScenario.node[61].veinsmobility 	minSpeed 	0.25137689408823
scalar RSUExampleScenario.node[61].veinsmobility 	maxSpeed 	13.999418636451
scalar RSUExampleScenario.node[61].veinsmobility 	totalDistance 	1192.9085504133
scalar RSUExampleScenario.node[61].veinsmobility 	totalCO2Emission 	287.91327431185
scalar RSUExampleScenario.node[62].veinsmobility 	startTime 	186.1
scalar RSUExampleScenario.node[62].veinsmobility 	totalTime 	97.6
scalar RSUExampleScenario.node[62].veinsmobility 	stopTime 	283.71888142971
scalar RSUExampleScenario.node[62].veinsmobility 	minSpeed 	0.2568248586501
scalar RSUExampleScenario.node[62].veinsmobility 	maxSpeed 	13.999208271059
scalar RSUExampleScenario.node[62].veinsmobility 	totalDistance 	1151.2082627476
scalar RSUExampleScenario.node[62].veinsmobility 	totalCO2Emission 	279.32168187254
scalar RSUExampleScenario.node[63].veinsmobility 	startTime 	189.1
scalar RSUExampleScenario.node[63].veinsmobility 	totalTime 	94.6
scalar RSUExampleScenario.node[63].veinsmobility 	stopTime 	283.71888142971
scalar RSUExampleScenario.node[63].veinsmobility 	minSpeed 	0.25098409892432
scalar RSUExampleScenario.node[63].veinsmobility 	maxSpeed 	13.999905279614
scalar RSUExampleScenario.node[63].veinsmobility 	totalDistance 	1110.0977670875
scalar RSUExampleScenario.node[63].veinsmobility 	totalCO2Emission 	274.43043530073
scalar RSUExampleScenario.node[64].veinsmobility 	startTime 	192.1
scalar RSUExampleScenario.node[64].veinsmobility 	totalTime 	91.6
scalar RSUExampleScenario.node[64].veinsmobility 	stopTime 	283.71888142971
scalar RSUExampleScenario.node[64].veinsmobility 	minSpeed 	0.24782813222101
scalar RSUExampleScenario.node[64].veinsmobility 	maxSpeed 	13.999725964693
scalar RSUExampleScenario.node[64].veinsmobility 	totalDistance 	1066.679591424
scalar RSUExampleScenario.node[64].veinsmobility 	totalCO2Emission 	266.49415239583
scalar RSUExampleScenario.node[65].veinsmobility 	startTime 	195.1
scalar RSUExampleScenario.node[65].veinsmobility 	totalTime 	88.6
scalar RSUExampleScenario.node[65].veinsmobility 	stopTime 	283.71888142971
scalar RSUExampleScenario.node[65].veinsmobility 	minSpeed 	0.25239837867324
scalar RSUExampleScenario.node[65].veinsmobility 	maxSpeed 	13.999567891934
scalar RSUExampleScenario.node[65].veinsmobility 	totalDistance 	1024.5638659257
scalar RSUExampleScenario.node[65].veinsmobility 	totalCO2Emission 	258.42767431995
scalar RSUExampleScenario.node[66].veinsmobility 	startTime 	198.1
scalar RSUExampleScenario.node[66].veinsmobility 	totalTime 	85.6
scalar RSUExampleScenario.node[66].veinsmobility 	stopTime 	283.71888142971
scalar RSUExampleScenario.node[66].veinsmobility 	minSpeed 	0.25994907322153
scalar RSUExampleScenario.node[66].veinsmobility 	maxSpeed 	13.999575505543
scalar RSUExampleScenario.node[66].veinsmobility 	totalDistance 	986.00638969038
scalar RSUExampleScenario.node[66].veinsmobility 	totalCO2Emission 	254.84374678108
scalar RSUExampleScenario.node[67].veinsmobility 	startTime 	201.1
scalar RSUExampleScenario.node[67].veinsmobility 	totalTime 	82.6
scalar RSUExampleScenario.node[67].veinsmobility 	stopTime 	283.71888142971
scalar RSUExampleScenario.node[67].veinsmobility 	minSpeed 	0.25104293466033
scalar RSUExampleScenario.node[67].veinsmobility 	maxSpeed 	13.999941411142
scalar RSUExampleScenario.node[67].veinsmobility 	totalDistance 	951.788325315
scalar RSUExampleScenario.node[67].veinsmobility 	totalCO2Emission 	234.18851308521
scalar RSUExampleScenario.node[68].veinsmobility 	startTime 	204.1
scalar RSUExampleScenario.node[68].veinsmobility 	totalTime 	79.6
scalar RSUExampleScenario.node[68].veinsmobility 	stopTime 	283.71888142971
scalar RSUExampleScenario.node[68].veinsmobility 	minSpeed 	0.25200852878694
scalar RSUExampleScenario.node[68].veinsmobility 	maxSpeed 	13.999877366722
scalar RSUExampleScenario.node[68].veinsmobility 	totalDistance 	935.5749053804
scalar RSUExampleScenario.node[68].veinsmobility 	totalCO2Emission 	221.79425392516
scalar RSUExampleScenario.node[69].veinsmobility 	startTime 	207.1
scalar RSUExampleScenario.node[69].veinsmobility 	totalTime 	76.6
scalar RSUExampleScenario.node[69].veinsmobility 	stopTime 	283.71888142971
scalar RSUExampleScenario.node[69].veinsmobility 	minSpeed 	0.2533982549659
scalar RSUExampleScenario.node[69].veinsmobility 	maxSpeed 	13.999886759724
scalar RSUExampleScenario.node[69].veinsmobility 	totalDistance 	909.19713344307
scalar RSUExampleScenario.node[69].veinsmobility 	totalCO2Emission 	217.51103599474
scalar RSUExampleScenario.node[7].veinsmobility 	startTime 	21.1
scalar RSUExampleScenario.node[7].veinsmobility 	totalTime 	262.6
scalar RSUExampleScenario.node[7].veinsmobility 	stopTime 	283.71888142971
scalar RSUExampleScenario.node[7].veinsmobility 	minSpeed 	0.25369647151302
scalar RSUExampleScenario.node[7].veinsmobility 	maxSpeed 	13.999965177714
scalar RSUExampleScenario.node[7].veinsmobility 	totalDistance 	3381.730081939
scalar RSUExampleScenario.node[7].veinsmobility 	totalCO2Emission 	680.79487518659
scalar RSUExampleScenario.node[70].veinsmobility 	startTime 	210.1
scalar RSUExampleScenario.node[70].veinsmobility 	totalTime 	73.6
scalar RSUExampleScenario.node[70].veinsmobility 	stopTime 	283.71888142971
scalar RSUExampleScenario.node[70].veinsmobility 	minSpeed 	0.24880464169988
scalar RSUExampleScenario.node[70].veinsmobility 	maxSpeed 	13.999973622723
scalar RSUExampleScenario.node[70].veinsmobility 	totalDistance 	871.38272537753
scalar RSUExampleScenario.node[70].veinsmobility 	totalCO2Emission 	214.06417630649
scalar RSUExampleScenario.node[71].veinsmobility 	startTime 	213.1
scalar RSUExampleScenario.node[71].veinsmobility 	totalTime 	70.6
scalar RSUExampleScenario.node[71].veinsmobility 	stopTime 	283.71888142971
scalar RSUExampleScenario.node[71].veinsmobility 	minSpeed 	0.2597087204752
scalar RSUExampleScenario.node[71].veinsmobility 	maxSpeed 	13.999782596545
scalar RSUExampleScenario.node[71].veinsmobility 	totalDistance 	827.14935765561
scalar RSUExampleScenario.node[71].veinsmobility 	totalCO2Emission 	204.87143421921
scalar RSUExampleScenario.node[72].veinsmobility 	startTime 	216.1
scalar RSUExampleScenario.node[72].veinsmobility 	totalTime 	67.6
scalar RSUExampleScenario.node[72].veinsmobility 	stopTime 	283.71888142971
scalar RSUExampleScenario.node[72].veinsmobility 	minSpeed 	0.25525172897242
scalar RSUExampleScenario.node[72].veinsmobility 	maxSpeed 	13.999937002277
scalar RSUExampleScenario.node[72].veinsmobility 	totalDistance 	784.95727867757
scalar RSUExampleScenario.node[72].veinsmobility 	totalCO2Emission 	198.21643868102
scalar RSUExampleScenario.node[73].veinsmobility 	startTime 	219.1
scalar RSUExampleScenario.node[73].veinsmobility 	totalTime 	64.6
scalar RSUExampleScenario.node[73].veinsmobility 	stopTime 	283.71888142971
scalar RSUExampleScenario.node[73].veinsmobility 	minSpeed 	0.2548805645355
scalar RSUExampleScenario.node[73].veinsmobility 	maxSpeed 	13.999993587062
scalar RSUExampleScenario.node[73].veinsmobility 	totalDistance 	743.26985063734
scalar RSUExampleScenario.node[73].veinsmobility 	totalCO2Emission 	194.6004091545
scalar RSUExampleScenario.node[74].veinsmobility 	startTime 	222.1
scalar RSUExampleScenario.node[74].veinsmobility 	totalTime 	61.6
scalar RSUExampleScenario.node[74].veinsmobility 	stopTime 	283.71888142971
scalar RSUExampleScenario.node[74].veinsmobility 	minSpeed 	0.25167776539177
scalar RSUExampleScenario.node[74].veinsmobility 	maxSpeed 	13.999239773613
scalar RSUExampleScenario.node[74].veinsmobility 	totalDistance 	702.16257404756
scalar RSUExampleScenario.node[74].veinsmobility 	totalCO2Emission 	184.43860476924
scalar RSUExampleScenario.node[75].veinsmobility 	startTime 	225.1
scalar RSUExampleScenario.node[75].veinsmobility 	totalTime 	58.6
scalar RSUExampleScenario.node[75].veinsmobility 	stopTime 	283.71888142971
scalar RSUExampleScenario.node[75].veinsmobility 	minSpeed 	0.24988963547931
scalar RSUExampleScenario.node[75].veinsmobility 	maxSpeed 	13.999663984217
scalar RSUExampleScenario.node[75].veinsmobility 	totalDistance 	662.45276169129
scalar RSUExampleScenario.node[75].veinsmobility 	totalCO2Emission 	177.64538609132
scalar RSUExampleScenario.node[76].veinsmobility 	startTime 	228.1
scalar RSUExampleScenario.node[76].veinsmobility 	totalTime 	55.6
scalar RSUExampleScenario.node[76].veinsmobility 	stopTime 	283.71888142971
scalar RSUExampleScenario.node[76].veinsmobility 	minSpeed 	0.24964417736861
scalar RSUExampleScenario.node[76].veinsmobility 	maxSpeed 	13.999944412
scalar RSUExampleScenario.node[76].veinsmobility 	totalDistance 	619.28208005599
scalar RSUExampleScenario.node[76].veinsmobility 	totalCO2Emission 	172.05968198835
scalar RSUExampleScenario.node[77].veinsmobility 	startTime 	231.1
scalar RSUExampleScenario.node[77].veinsmobility 	totalTime 	52.6
scalar RSUExampleScenario.node[77].veinsmobility 	stopTime 	283.71888142971
scalar RSUExampleScenario.node[77].veinsmobility 	minSpeed 	0.24948219168582
scalar RSUExampleScenario.node[77].veinsmobility 	maxSpeed 	13.999540869223
scalar RSUExampleScenario.node[77].veinsmobility 	totalDistance 	576.76567770183
scalar RSUExampleScenario.node[77].veinsmobility 	totalCO2Emission 	164.6076083921
scalar RSUExampleScenario.node[78].veinsmobility 	startTime 	234.1
scalar RSUExampleScenario.node[78].veinsmobility 	totalTime 	49.6
scalar RSUExampleScenario.node[78].veinsmobility 	stopTime 	283.71888142971
scalar RSUExampleScenario.node[78].veinsmobility 	minSpeed 	0.25038056438603
scalar RSUExampleScenario.node[78].veinsmobility 	maxSpeed 	13.999528899568
scalar RSUExampleScenario.node[78].veinsmobility 	totalDistance 	536.99391347563
scalar RSUExampleScenario.node[78].veinsmobility 	totalCO2Emission 	155.77608223253
scalar RSUExampleScenario.node[79].veinsmobility 	startTime 	237.1
scalar RSUExampleScenario.node[79].veinsmobility 	totalTime 	46.6
scalar RSUExampleScenario.node[79].veinsmobility 	stopTime 	283.71888142971
scalar RSUExampleScenario.node[79].veinsmobility 	minSpeed 	0.25487304134644
scalar RSUExampleScenario.node[79].veinsmobility 	maxSpeed 	13.999690738239
scalar RSUExampleScenario.node[79].veinsmobility 	totalDistance 	494.25862211126
scalar RSUExampleScenario.node[79].veinsmobility 	totalCO2Emission 	148.59897630259
scalar RSUExampleScenario.node[8].veinsmobility 	startTime 	24.1
scalar RSUExampleScenario.node[8].veinsmobility 	totalTime 	259.6
scalar RSUExampleScenario.node[8].veinsmobility 	stopTime 	283.71888142971
scalar RSUExampleScenario.node[8].veinsmobility 	minSpeed 	0.25275984395877
scalar RSUExampleScenario.node[8].veinsmobility 	maxSpeed 	13.999842830256
scalar RSUExampleScenario.node[8].veinsmobility 	totalDistance 	3357.7869541178
scalar RSUExampleScenario.node[8].veinsmobility 	totalCO2Emission 	674.7399448898
scalar RSUExampleScenario.node[80].veinsmobility 	startTime 	240.1
scalar RSUExampleScenario.node[80].veinsmobility 	totalTime 	43.6
scalar RSUExampleScenario.node[80].veinsmobility 	stopTime 	283.71888142971
scalar RSUExampleScenario.node[80].veinsmobility 	minSpeed 	0.24987922081398
scalar RSUExampleScenario.node[80].veinsmobility 	maxSpeed 	13.998114231732
scalar RSUExampleScenario.node[80].veinsmobility 	totalDistance 	453.08007838908
scalar RSUExampleScenario.node[80].veinsmobility 	totalCO2Emission 	143.27748005193
scalar RSUExampleScenario.node[81].veinsmobility 	startTime 	243.1
scalar RSUExampleScenario.node[81].veinsmobility 	totalTime 	40.6
scalar RSUExampleScenario.node[81].veinsmobility 	stopTime 	283.71888142971
scalar RSUExampleScenario.node[81].veinsmobility 	minSpeed 	0.25981997211697
scalar RSUExampleScenario.node[81].veinsmobility 	maxSpeed 	13.998240233292
scalar RSUExampleScenario.node[81].veinsmobility 	totalDistance 	412.53668860048
scalar RSUExampleScenario.node[81].veinsmobility 	totalCO2Emission 	135.64212548836
scalar RSUExampleScenario.node[82].veinsmobility 	startTime 	246.1
scalar RSUExampleScenario.node[82].veinsmobility 	totalTime 	37.6
scalar RSUExampleScenario.node[82].veinsmobility 	stopTime 	283.71888142971
scalar RSUExampleScenario.node[82].veinsmobility 	minSpeed 	0.25469684267812
scalar RSUExampleScenario.node[82].veinsmobility 	maxSpeed 	13.998931721391
scalar RSUExampleScenario.node[82].veinsmobility 	totalDistance 	370.25697141737
scalar RSUExampleScenario.node[82].veinsmobility 	totalCO2Emission 	127.78706680594
scalar RSUExampleScenario.node[83].veinsmobility 	startTime 	249.1
scalar RSUExampleScenario.node[83].veinsmobility 	totalTime 	34.6
scalar RSUExampleScenario.node[83].veinsmobility 	stopTime 	283.71888142971
scalar RSUExampleScenario.node[83].veinsmobility 	minSpeed 	0.24821849574894
scalar RSUExampleScenario.node[83].veinsmobility 	maxSpeed 	13.997007627469
scalar RSUExampleScenario.node[83].veinsmobility 	totalDistance 	327.6239741843
scalar RSUExampleScenario.node[83].veinsmobility 	totalCO2Emission 	122.54819612834
scalar RSUExampleScenario.node[84].veinsmobility 	startTime 	252.1
scalar RSUExampleScenario.node[84].veinsmobility 	totalTime 	31.6
scalar RSUExampleScenario.node[84].veinsmobility 	stopTime 	283.71888142971
scalar RSUExampleScenario.node[84].veinsmobility 	minSpeed 	0.25353569979127
scalar RSUExampleScenario.node[84].veinsmobility 	maxSpeed 	13.990104591402
scalar RSUExampleScenario.node[84].veinsmobility 	totalDistance 	285.70302464176
scalar RSUExampleScenario.node[84].veinsmobility 	totalCO2Emission 	114.69483131409
scalar RSUExampleScenario.node[85].veinsmobility 	startTime 	255.1
scalar RSUExampleScenario.node[85].veinsmobility 	totalTime 	28.6
scalar RSUExampleScenario.node[85].veinsmobility 	stopTime 	283.71888142971
scalar RSUExampleScenario.node[85].veinsmobility 	minSpeed 	0.25325060064974
scalar RSUExampleScenario.node[85].veinsmobility 	maxSpeed 	13.886674217274
scalar RSUExampleScenario.node[85].veinsmobility 	totalDistance 	247.38984187339
scalar RSUExampleScenario.node[85].veinsmobility 	totalCO2Emission 	98.555138023015
scalar RSUExampleScenario.node[86].veinsmobility 	startTime 	258.1
scalar RSUExampleScenario.node[86].veinsmobility 	totalTime 	25.6
scalar RSUExampleScenario.node[86].veinsmobility 	stopTime 	283.71888142971
scalar RSUExampleScenario.node[86].veinsmobility 	minSpeed 	0.25224148168927
scalar RSUExampleScenario.node[86].veinsmobility 	maxSpeed 	13.871310041538
scalar RSUExampleScenario.node[86].veinsmobility 	totalDistance 	225.30297673404
scalar RSUExampleScenario.node[86].veinsmobility 	totalCO2Emission 	82.800946408126
scalar RSUExampleScenario.node[87].veinsmobility 	startTime 	261.1
scalar RSUExampleScenario.node[87].veinsmobility 	totalTime 	22.6
scalar RSUExampleScenario.node[87].veinsmobility 	stopTime 	283.71888142971
scalar RSUExampleScenario.node[87].veinsmobility 	minSpeed 	0.2554285767437
scalar RSUExampleScenario.node[87].veinsmobility 	maxSpeed 	13.885325114613
scalar RSUExampleScenario.node[87].veinsmobility 	totalDistance 	206.59978136784
scalar RSUExampleScenario.node[87].veinsmobility 	totalCO2Emission 	78.117854157646
scalar RSUExampleScenario.node[88].veinsmobility 	startTime 	264.1
scalar RSUExampleScenario.node[88].veinsmobility 	totalTime 	19.6
scalar RSUExampleScenario.node[88].veinsmobility 	stopTime 	283.71888142971
scalar RSUExampleScenario.node[88].veinsmobility 	minSpeed 	0.25493974008411
scalar RSUExampleScenario.node[88].veinsmobility 	maxSpeed 	13.86052670266
scalar RSUExampleScenario.node[88].veinsmobility 	totalDistance 	171.70515754007
scalar RSUExampleScenario.node[88].veinsmobility 	totalCO2Emission 	74.636117475953
scalar RSUExampleScenario.node[89].veinsmobility 	startTime 	267.1
scalar RSUExampleScenario.node[89].veinsmobility 	totalTime 	16.6
scalar RSUExampleScenario.node[89].veinsmobility 	stopTime 	283.71888142971
scalar RSUExampleScenario.node[89].veinsmobility 	minSpeed 	0.25048954122234
scalar RSUExampleScenario.node[89].veinsmobility 	maxSpeed 	13.877334005584
scalar RSUExampleScenario.node[89].veinsmobility 	totalDistance 	135.84340280075
scalar RSUExampleScenario.node[89].veinsmobility 	totalCO2Emission 	56.726715433441
scalar RSUExampleScenario.node[9].veinsmobility 	startTime 	27.1
scalar RSUExampleScenario.node[9].veinsmobility 	totalTime 	256.6
scalar RSUExampleScenario.node[9].veinsmobility 	stopTime 	283.71888142971
scalar RSUExampleScenario.node[9].veinsmobility 	minSpeed 	0.25244415028137
scalar RSUExampleScenario.node[9].veinsmobility 	maxSpeed 	13.99993294561
scalar RSUExampleScenario.node[9].veinsmobility 	totalDistance 	3311.3713844401
scalar RSUExampleScenario.node[9].veinsmobility 	totalCO2Emission 	666.16226534687
scalar RSUExampleScenario.node[90].veinsmobility 	startTime 	270.1
scalar RSUExampleScenario.node[90].veinsmobility 	totalTime 	13.6
scalar RSUExampleScenario.node[90].veinsmobility 	stopTime 	283.71888142971
scalar RSUExampleScenario.node[90].veinsmobility 	minSpeed 	0.25783524086606
scalar RSUExampleScenario.node[90].veinsmobility 	maxSpeed 	13.887198378481
scalar RSUExampleScenario.node[90].veinsmobility 	totalDistance 	116.3899459739
scalar RSUExampleScenario.node[90].veinsmobility 	totalCO2Emission 	42.596402637714
scalar RSUExampleScenario.node[91].veinsmobility 	startTime 	273.1
scalar RSUExampleScenario.node[91].veinsmobility 	totalTime 	10.6
scalar RSUExampleScenario.node[91].veinsmobility 	stopTime 	283.71888142971
scalar RSUExampleScenario.node[91].veinsmobility 	minSpeed 	0.25520915432926
scalar RSUExampleScenario.node[91].veinsmobility 	maxSpeed 	13.879322015953
scalar RSUExampleScenario.node[91].veinsmobility 	totalDistance 	96.063533732307
scalar RSUExampleScenario.node[91].veinsmobility 	totalCO2Emission 	38.969488869507
scalar RSUExampleScenario.node[92].veinsmobility 	startTime 	276.1
scalar RSUExampleScenario.node[92].veinsmobility 	totalTime 	7.6
scalar RSUExampleScenario.node[92].veinsmobility 	stopTime 	283.71888142971
scalar RSUExampleScenario.node[92].veinsmobility 	minSpeed 	0.25418462305982
scalar RSUExampleScenario.node[92].veinsmobility 	maxSpeed 	13.864269166284
scalar RSUExampleScenario.node[92].veinsmobility 	totalDistance 	58.45351623878
scalar RSUExampleScenario.node[92].veinsmobility 	totalCO2Emission 	35.237808708463
scalar RSUExampleScenario.node[93].veinsmobility 	startTime 	279.1
scalar RSUExampleScenario.node[93].veinsmobility 	totalTime 	4.6
scalar RSUExampleScenario.node[93].veinsmobility 	stopTime 	283.71888142971
scalar RSUExampleScenario.node[93].veinsmobility 	minSpeed 	0.25460802457016
scalar RSUExampleScenario.node[93].veinsmobility 	maxSpeed 	9.6898439795138
scalar RSUExampleScenario.node[93].veinsmobility 	totalDistance 	23.583794070362
scalar RSUExampleScenario.node[93].veinsmobility 	totalCO2Emission 	17.792172009341
scalar RSUExampleScenario.node[94].veinsmobility 	startTime 	282.1
scalar RSUExampleScenario.node[94].veinsmobility 	totalTime 	1.6
scalar RSUExampleScenario.node[94].veinsmobility 	stopTime 	283.71888142971
scalar RSUExampleScenario.node[94].veinsmobility 	minSpeed 	0.2470395144592
scalar RSUExampleScenario.node[94].veinsmobility 	maxSpeed 	3.3897913758239
scalar RSUExampleScenario.node[94].veinsmobility 	totalDistance 	3.0450899582835
scalar RSUExampleScenario.node[94].veinsmobility 	totalCO2Emission 	3.2712473891962
