version 2
run statisticLeach-54-20150323-02:07:46-3216
attr c 29
attr configname statisticLeach
attr datetime 20150323-02:07:46
attr experiment statisticLeach
attr inifile omnetpp.ini
attr iterationvars "$p=1/25, $c=29"
attr iterationvars2 "$p=1/25, $c=29, $repetition=4"
attr measurement "$p=1/25, $c=29"
attr network RSUExampleScenario
attr p 1/25
attr processid 3216
attr repetition 4
attr replication #4
attr resultdir results
attr runnumber 54
attr seedset 54

scalar . 	c 	29
scalar RSUExampleScenario.node[0].appl 	meanClusterNodes 	2
scalar RSUExampleScenario.node[0].appl 	meanClusterHeadUtility 	17.506966228033
scalar RSUExampleScenario.node[0].appl 	NumberofCH 	0.054054054054054
scalar RSUExampleScenario.node[0].appl 	NumberofON 	0.16216216216216
scalar RSUExampleScenario.node[0].appl 	NumberofFN 	0.78378378378378
scalar RSUExampleScenario.node[0].veinsmobility 	startTime 	0.1
scalar RSUExampleScenario.node[0].veinsmobility 	totalTime 	449.9
scalar RSUExampleScenario.node[0].veinsmobility 	stopTime 	450
scalar RSUExampleScenario.node[0].veinsmobility 	minSpeed 	0
scalar RSUExampleScenario.node[0].veinsmobility 	maxSpeed 	13.999932844636
scalar RSUExampleScenario.node[0].veinsmobility 	totalDistance 	3134.6471579612
scalar RSUExampleScenario.node[0].veinsmobility 	totalCO2Emission 	838.9175934656
scalar RSUExampleScenario.node[1].appl 	meanClusterNodes 	1.5
scalar RSUExampleScenario.node[1].appl 	meanClusterHeadUtility 	17.433147213974
scalar RSUExampleScenario.node[1].appl 	NumberofCH 	0.054054054054054
scalar RSUExampleScenario.node[1].appl 	NumberofON 	0.13513513513514
scalar RSUExampleScenario.node[1].appl 	NumberofFN 	0.81081081081081
scalar RSUExampleScenario.node[1].veinsmobility 	startTime 	2.5
scalar RSUExampleScenario.node[1].veinsmobility 	totalTime 	447.5
scalar RSUExampleScenario.node[1].veinsmobility 	stopTime 	450
scalar RSUExampleScenario.node[1].veinsmobility 	minSpeed 	0
scalar RSUExampleScenario.node[1].veinsmobility 	maxSpeed 	13.999920079235
scalar RSUExampleScenario.node[1].veinsmobility 	totalDistance 	3082.0536494158
scalar RSUExampleScenario.node[1].veinsmobility 	totalCO2Emission 	828.69652744245
scalar RSUExampleScenario.node[10].appl 	meanClusterNodes 	0
scalar RSUExampleScenario.node[10].appl 	meanClusterHeadUtility 	0
scalar RSUExampleScenario.node[10].appl 	NumberofCH 	0
scalar RSUExampleScenario.node[10].appl 	NumberofON 	0.27027027027027
scalar RSUExampleScenario.node[10].appl 	NumberofFN 	0.72972972972973
scalar RSUExampleScenario.node[10].veinsmobility 	startTime 	24.2
scalar RSUExampleScenario.node[10].veinsmobility 	totalTime 	425.8
scalar RSUExampleScenario.node[10].veinsmobility 	stopTime 	450
scalar RSUExampleScenario.node[10].veinsmobility 	minSpeed 	0
scalar RSUExampleScenario.node[10].veinsmobility 	maxSpeed 	13.999961390947
scalar RSUExampleScenario.node[10].veinsmobility 	totalDistance 	2792.462677052
scalar RSUExampleScenario.node[10].veinsmobility 	totalCO2Emission 	760.04137864133
scalar RSUExampleScenario.node[11].appl 	meanClusterNodes 	0
scalar RSUExampleScenario.node[11].appl 	meanClusterHeadUtility 	0
scalar RSUExampleScenario.node[11].appl 	NumberofCH 	0
scalar RSUExampleScenario.node[11].appl 	NumberofON 	0.43243243243243
scalar RSUExampleScenario.node[11].appl 	NumberofFN 	0.56756756756757
scalar RSUExampleScenario.node[11].veinsmobility 	startTime 	26.6
scalar RSUExampleScenario.node[11].veinsmobility 	totalTime 	423.4
scalar RSUExampleScenario.node[11].veinsmobility 	stopTime 	450
scalar RSUExampleScenario.node[11].veinsmobility 	minSpeed 	0
scalar RSUExampleScenario.node[11].veinsmobility 	maxSpeed 	13.999994022981
scalar RSUExampleScenario.node[11].veinsmobility 	totalDistance 	2753.974469998
scalar RSUExampleScenario.node[11].veinsmobility 	totalCO2Emission 	751.44936999199
scalar RSUExampleScenario.node[12].appl 	meanClusterNodes 	4.5
scalar RSUExampleScenario.node[12].appl 	meanClusterHeadUtility 	16.659686739254
scalar RSUExampleScenario.node[12].appl 	NumberofCH 	0.054054054054054
scalar RSUExampleScenario.node[12].appl 	NumberofON 	0.48648648648649
scalar RSUExampleScenario.node[12].appl 	NumberofFN 	0.45945945945946
scalar RSUExampleScenario.node[12].veinsmobility 	startTime 	29
scalar RSUExampleScenario.node[12].veinsmobility 	totalTime 	421
scalar RSUExampleScenario.node[12].veinsmobility 	stopTime 	450
scalar RSUExampleScenario.node[12].veinsmobility 	minSpeed 	0
scalar RSUExampleScenario.node[12].veinsmobility 	maxSpeed 	13.999971542375
scalar RSUExampleScenario.node[12].veinsmobility 	totalDistance 	2721.7163605502
scalar RSUExampleScenario.node[12].veinsmobility 	totalCO2Emission 	746.2508431007
scalar RSUExampleScenario.node[13].appl 	meanClusterNodes 	9
scalar RSUExampleScenario.node[13].appl 	meanClusterHeadUtility 	17.884834292232
scalar RSUExampleScenario.node[13].appl 	NumberofCH 	0.054054054054054
scalar RSUExampleScenario.node[13].appl 	NumberofON 	0.27027027027027
scalar RSUExampleScenario.node[13].appl 	NumberofFN 	0.67567567567568
scalar RSUExampleScenario.node[13].veinsmobility 	startTime 	31.4
scalar RSUExampleScenario.node[13].veinsmobility 	totalTime 	418.6
scalar RSUExampleScenario.node[13].veinsmobility 	stopTime 	450
scalar RSUExampleScenario.node[13].veinsmobility 	minSpeed 	0
scalar RSUExampleScenario.node[13].veinsmobility 	maxSpeed 	13.999783229267
scalar RSUExampleScenario.node[13].veinsmobility 	totalDistance 	2681.0187109195
scalar RSUExampleScenario.node[13].veinsmobility 	totalCO2Emission 	738.37583677945
scalar RSUExampleScenario.node[14].appl 	meanClusterNodes 	3
scalar RSUExampleScenario.node[14].appl 	meanClusterHeadUtility 	33.385901967064
scalar RSUExampleScenario.node[14].appl 	NumberofCH 	0.027027027027027
scalar RSUExampleScenario.node[14].appl 	NumberofON 	0.45945945945946
scalar RSUExampleScenario.node[14].appl 	NumberofFN 	0.51351351351351
scalar RSUExampleScenario.node[14].veinsmobility 	startTime 	33.8
scalar RSUExampleScenario.node[14].veinsmobility 	totalTime 	416.2
scalar RSUExampleScenario.node[14].veinsmobility 	stopTime 	450
scalar RSUExampleScenario.node[14].veinsmobility 	minSpeed 	0
scalar RSUExampleScenario.node[14].veinsmobility 	maxSpeed 	13.999889914284
scalar RSUExampleScenario.node[14].veinsmobility 	totalDistance 	2653.8805926677
scalar RSUExampleScenario.node[14].veinsmobility 	totalCO2Emission 	729.95782478951
scalar RSUExampleScenario.node[15].appl 	meanClusterNodes 	0
scalar RSUExampleScenario.node[15].appl 	meanClusterHeadUtility 	0
scalar RSUExampleScenario.node[15].appl 	NumberofCH 	0
scalar RSUExampleScenario.node[15].appl 	NumberofON 	0.59459459459459
scalar RSUExampleScenario.node[15].appl 	NumberofFN 	0.40540540540541
scalar RSUExampleScenario.node[15].veinsmobility 	startTime 	36.2
scalar RSUExampleScenario.node[15].veinsmobility 	totalTime 	413.8
scalar RSUExampleScenario.node[15].veinsmobility 	stopTime 	450
scalar RSUExampleScenario.node[15].veinsmobility 	minSpeed 	0
scalar RSUExampleScenario.node[15].veinsmobility 	maxSpeed 	13.999982104297
scalar RSUExampleScenario.node[15].veinsmobility 	totalDistance 	2613.9462092941
scalar RSUExampleScenario.node[15].veinsmobility 	totalCO2Emission 	731.66460624477
scalar RSUExampleScenario.node[16].appl 	meanClusterNodes 	7.5
scalar RSUExampleScenario.node[16].appl 	meanClusterHeadUtility 	18.063480293881
scalar RSUExampleScenario.node[16].appl 	NumberofCH 	0.054054054054054
scalar RSUExampleScenario.node[16].appl 	NumberofON 	0.18918918918919
scalar RSUExampleScenario.node[16].appl 	NumberofFN 	0.75675675675676
scalar RSUExampleScenario.node[16].veinsmobility 	startTime 	38.6
scalar RSUExampleScenario.node[16].veinsmobility 	totalTime 	411.4
scalar RSUExampleScenario.node[16].veinsmobility 	stopTime 	450
scalar RSUExampleScenario.node[16].veinsmobility 	minSpeed 	0
scalar RSUExampleScenario.node[16].veinsmobility 	maxSpeed 	13.999998265887
scalar RSUExampleScenario.node[16].veinsmobility 	totalDistance 	2582.9675539481
scalar RSUExampleScenario.node[16].veinsmobility 	totalCO2Emission 	722.20938315048
scalar RSUExampleScenario.node[17].appl 	meanClusterNodes 	0
scalar RSUExampleScenario.node[17].appl 	meanClusterHeadUtility 	0
scalar RSUExampleScenario.node[17].appl 	NumberofCH 	0
scalar RSUExampleScenario.node[17].appl 	NumberofON 	0.18918918918919
scalar RSUExampleScenario.node[17].appl 	NumberofFN 	0.81081081081081
scalar RSUExampleScenario.node[17].veinsmobility 	startTime 	41
scalar RSUExampleScenario.node[17].veinsmobility 	totalTime 	409
scalar RSUExampleScenario.node[17].veinsmobility 	stopTime 	450
scalar RSUExampleScenario.node[17].veinsmobility 	minSpeed 	0
scalar RSUExampleScenario.node[17].veinsmobility 	maxSpeed 	13.999999514502
scalar RSUExampleScenario.node[17].veinsmobility 	totalDistance 	2540.258892602
scalar RSUExampleScenario.node[17].veinsmobility 	totalCO2Emission 	718.91883335934
scalar RSUExampleScenario.node[18].appl 	meanClusterNodes 	3
scalar RSUExampleScenario.node[18].appl 	meanClusterHeadUtility 	16.568648455913
scalar RSUExampleScenario.node[18].appl 	NumberofCH 	0.054054054054054
scalar RSUExampleScenario.node[18].appl 	NumberofON 	0.24324324324324
scalar RSUExampleScenario.node[18].appl 	NumberofFN 	0.7027027027027
scalar RSUExampleScenario.node[18].veinsmobility 	startTime 	43.4
scalar RSUExampleScenario.node[18].veinsmobility 	totalTime 	406.6
scalar RSUExampleScenario.node[18].veinsmobility 	stopTime 	450
scalar RSUExampleScenario.node[18].veinsmobility 	minSpeed 	0
scalar RSUExampleScenario.node[18].veinsmobility 	maxSpeed 	13.999924536408
scalar RSUExampleScenario.node[18].veinsmobility 	totalDistance 	2509.7779306979
scalar RSUExampleScenario.node[18].veinsmobility 	totalCO2Emission 	716.91870375865
scalar RSUExampleScenario.node[19].appl 	meanClusterNodes 	3
scalar RSUExampleScenario.node[19].appl 	meanClusterHeadUtility 	17.046718340964
scalar RSUExampleScenario.node[19].appl 	NumberofCH 	0.054054054054054
scalar RSUExampleScenario.node[19].appl 	NumberofON 	0.45945945945946
scalar RSUExampleScenario.node[19].appl 	NumberofFN 	0.48648648648649
scalar RSUExampleScenario.node[19].veinsmobility 	startTime 	45.8
scalar RSUExampleScenario.node[19].veinsmobility 	totalTime 	404.2
scalar RSUExampleScenario.node[19].veinsmobility 	stopTime 	450
scalar RSUExampleScenario.node[19].veinsmobility 	minSpeed 	0
scalar RSUExampleScenario.node[19].veinsmobility 	maxSpeed 	13.999888951278
scalar RSUExampleScenario.node[19].veinsmobility 	totalDistance 	2469.7052261787
scalar RSUExampleScenario.node[19].veinsmobility 	totalCO2Emission 	706.56035619986
scalar RSUExampleScenario.node[2].appl 	meanClusterNodes 	2.5
scalar RSUExampleScenario.node[2].appl 	meanClusterHeadUtility 	17.72599371422
scalar RSUExampleScenario.node[2].appl 	NumberofCH 	0.054054054054054
scalar RSUExampleScenario.node[2].appl 	NumberofON 	0.27027027027027
scalar RSUExampleScenario.node[2].appl 	NumberofFN 	0.67567567567568
scalar RSUExampleScenario.node[2].veinsmobility 	startTime 	4.9
scalar RSUExampleScenario.node[2].veinsmobility 	totalTime 	445.1
scalar RSUExampleScenario.node[2].veinsmobility 	stopTime 	450
scalar RSUExampleScenario.node[2].veinsmobility 	minSpeed 	0
scalar RSUExampleScenario.node[2].veinsmobility 	maxSpeed 	13.999962824953
scalar RSUExampleScenario.node[2].veinsmobility 	totalDistance 	3040.8009790319
scalar RSUExampleScenario.node[2].veinsmobility 	totalCO2Emission 	820.857429587
scalar RSUExampleScenario.node[20].appl 	meanClusterNodes 	4
scalar RSUExampleScenario.node[20].appl 	meanClusterHeadUtility 	16.140788844094
scalar RSUExampleScenario.node[20].appl 	NumberofCH 	0.054054054054054
scalar RSUExampleScenario.node[20].appl 	NumberofON 	0.27027027027027
scalar RSUExampleScenario.node[20].appl 	NumberofFN 	0.67567567567568
scalar RSUExampleScenario.node[20].veinsmobility 	startTime 	48.3
scalar RSUExampleScenario.node[20].veinsmobility 	totalTime 	401.7
scalar RSUExampleScenario.node[20].veinsmobility 	stopTime 	450
scalar RSUExampleScenario.node[20].veinsmobility 	minSpeed 	0
scalar RSUExampleScenario.node[20].veinsmobility 	maxSpeed 	13.999991702426
scalar RSUExampleScenario.node[20].veinsmobility 	totalDistance 	2441.4735585277
scalar RSUExampleScenario.node[20].veinsmobility 	totalCO2Emission 	700.62920919154
scalar RSUExampleScenario.node[21].appl 	meanClusterNodes 	3.75
scalar RSUExampleScenario.node[21].appl 	meanClusterHeadUtility 	8.5527980547978
scalar RSUExampleScenario.node[21].appl 	NumberofCH 	0.10810810810811
scalar RSUExampleScenario.node[21].appl 	NumberofON 	0.40540540540541
scalar RSUExampleScenario.node[21].appl 	NumberofFN 	0.48648648648649
scalar RSUExampleScenario.node[21].veinsmobility 	startTime 	50.7
scalar RSUExampleScenario.node[21].veinsmobility 	totalTime 	399.3
scalar RSUExampleScenario.node[21].veinsmobility 	stopTime 	450
scalar RSUExampleScenario.node[21].veinsmobility 	minSpeed 	0
scalar RSUExampleScenario.node[21].veinsmobility 	maxSpeed 	13.99985019821
scalar RSUExampleScenario.node[21].veinsmobility 	totalDistance 	2403.2165578662
scalar RSUExampleScenario.node[21].veinsmobility 	totalCO2Emission 	689.83243686742
scalar RSUExampleScenario.node[22].appl 	meanClusterNodes 	2
scalar RSUExampleScenario.node[22].appl 	meanClusterHeadUtility 	15.267362180904
scalar RSUExampleScenario.node[22].appl 	NumberofCH 	0.054054054054054
scalar RSUExampleScenario.node[22].appl 	NumberofON 	0.18918918918919
scalar RSUExampleScenario.node[22].appl 	NumberofFN 	0.75675675675676
scalar RSUExampleScenario.node[22].veinsmobility 	startTime 	53.1
scalar RSUExampleScenario.node[22].veinsmobility 	totalTime 	396.9
scalar RSUExampleScenario.node[22].veinsmobility 	stopTime 	450
scalar RSUExampleScenario.node[22].veinsmobility 	minSpeed 	0
scalar RSUExampleScenario.node[22].veinsmobility 	maxSpeed 	13.999945466749
scalar RSUExampleScenario.node[22].veinsmobility 	totalDistance 	2375.2113611531
scalar RSUExampleScenario.node[22].veinsmobility 	totalCO2Emission 	688.99507783225
scalar RSUExampleScenario.node[23].appl 	meanClusterNodes 	9
scalar RSUExampleScenario.node[23].appl 	meanClusterHeadUtility 	11.78206655017
scalar RSUExampleScenario.node[23].appl 	NumberofCH 	0.081081081081081
scalar RSUExampleScenario.node[23].appl 	NumberofON 	0.45945945945946
scalar RSUExampleScenario.node[23].appl 	NumberofFN 	0.45945945945946
scalar RSUExampleScenario.node[23].veinsmobility 	startTime 	55.5
scalar RSUExampleScenario.node[23].veinsmobility 	totalTime 	394.5
scalar RSUExampleScenario.node[23].veinsmobility 	stopTime 	450
scalar RSUExampleScenario.node[23].veinsmobility 	minSpeed 	0
scalar RSUExampleScenario.node[23].veinsmobility 	maxSpeed 	13.999914382165
scalar RSUExampleScenario.node[23].veinsmobility 	totalDistance 	2334.870356688
scalar RSUExampleScenario.node[23].veinsmobility 	totalCO2Emission 	679.33326389509
scalar RSUExampleScenario.node[24].appl 	meanClusterNodes 	4.5
scalar RSUExampleScenario.node[24].appl 	meanClusterHeadUtility 	20.543415237219
scalar RSUExampleScenario.node[24].appl 	NumberofCH 	0.054054054054054
scalar RSUExampleScenario.node[24].appl 	NumberofON 	0.37837837837838
scalar RSUExampleScenario.node[24].appl 	NumberofFN 	0.56756756756757
scalar RSUExampleScenario.node[24].veinsmobility 	startTime 	57.9
scalar RSUExampleScenario.node[24].veinsmobility 	totalTime 	392.1
scalar RSUExampleScenario.node[24].veinsmobility 	stopTime 	450
scalar RSUExampleScenario.node[24].veinsmobility 	minSpeed 	0
scalar RSUExampleScenario.node[24].veinsmobility 	maxSpeed 	13.999955701232
scalar RSUExampleScenario.node[24].veinsmobility 	totalDistance 	2306.19685987
scalar RSUExampleScenario.node[24].veinsmobility 	totalCO2Emission 	677.91591273011
scalar RSUExampleScenario.node[25].appl 	meanClusterNodes 	5.5
scalar RSUExampleScenario.node[25].appl 	meanClusterHeadUtility 	17.835861244403
scalar RSUExampleScenario.node[25].appl 	NumberofCH 	0.054054054054054
scalar RSUExampleScenario.node[25].appl 	NumberofON 	0.43243243243243
scalar RSUExampleScenario.node[25].appl 	NumberofFN 	0.51351351351351
scalar RSUExampleScenario.node[25].veinsmobility 	startTime 	60.3
scalar RSUExampleScenario.node[25].veinsmobility 	totalTime 	389.7
scalar RSUExampleScenario.node[25].veinsmobility 	stopTime 	450
scalar RSUExampleScenario.node[25].veinsmobility 	minSpeed 	0
scalar RSUExampleScenario.node[25].veinsmobility 	maxSpeed 	13.999931212224
scalar RSUExampleScenario.node[25].veinsmobility 	totalDistance 	2267.4579110275
scalar RSUExampleScenario.node[25].veinsmobility 	totalCO2Emission 	669.50625991052
scalar RSUExampleScenario.node[26].appl 	meanClusterNodes 	6.5
scalar RSUExampleScenario.node[26].appl 	meanClusterHeadUtility 	16.254706658793
scalar RSUExampleScenario.node[26].appl 	NumberofCH 	0.054054054054054
scalar RSUExampleScenario.node[26].appl 	NumberofON 	0.54054054054054
scalar RSUExampleScenario.node[26].appl 	NumberofFN 	0.40540540540541
scalar RSUExampleScenario.node[26].veinsmobility 	startTime 	62.7
scalar RSUExampleScenario.node[26].veinsmobility 	totalTime 	387.3
scalar RSUExampleScenario.node[26].veinsmobility 	stopTime 	450
scalar RSUExampleScenario.node[26].veinsmobility 	minSpeed 	0
scalar RSUExampleScenario.node[26].veinsmobility 	maxSpeed 	13.999886015102
scalar RSUExampleScenario.node[26].veinsmobility 	totalDistance 	2239.6801741089
scalar RSUExampleScenario.node[26].veinsmobility 	totalCO2Emission 	663.66853387381
scalar RSUExampleScenario.node[27].appl 	meanClusterNodes 	7.5
scalar RSUExampleScenario.node[27].appl 	meanClusterHeadUtility 	18.614297854408
scalar RSUExampleScenario.node[27].appl 	NumberofCH 	0.054054054054054
scalar RSUExampleScenario.node[27].appl 	NumberofON 	0.37837837837838
scalar RSUExampleScenario.node[27].appl 	NumberofFN 	0.56756756756757
scalar RSUExampleScenario.node[27].veinsmobility 	startTime 	65.1
scalar RSUExampleScenario.node[27].veinsmobility 	totalTime 	384.9
scalar RSUExampleScenario.node[27].veinsmobility 	stopTime 	450
scalar RSUExampleScenario.node[27].veinsmobility 	minSpeed 	0
scalar RSUExampleScenario.node[27].veinsmobility 	maxSpeed 	13.999904454902
scalar RSUExampleScenario.node[27].veinsmobility 	totalDistance 	2200.8439359437
scalar RSUExampleScenario.node[27].veinsmobility 	totalCO2Emission 	661.17399544785
scalar RSUExampleScenario.node[28].appl 	meanClusterNodes 	2
scalar RSUExampleScenario.node[28].appl 	meanClusterHeadUtility 	16.460917047126
scalar RSUExampleScenario.node[28].appl 	NumberofCH 	0.054054054054054
scalar RSUExampleScenario.node[28].appl 	NumberofON 	0.45945945945946
scalar RSUExampleScenario.node[28].appl 	NumberofFN 	0.48648648648649
scalar RSUExampleScenario.node[28].veinsmobility 	startTime 	67.5
scalar RSUExampleScenario.node[28].veinsmobility 	totalTime 	382.5
scalar RSUExampleScenario.node[28].veinsmobility 	stopTime 	450
scalar RSUExampleScenario.node[28].veinsmobility 	minSpeed 	0
scalar RSUExampleScenario.node[28].veinsmobility 	maxSpeed 	13.999952586505
scalar RSUExampleScenario.node[28].veinsmobility 	totalDistance 	2169.3021014058
scalar RSUExampleScenario.node[28].veinsmobility 	totalCO2Emission 	655.17971769802
scalar RSUExampleScenario.node[29].appl 	meanClusterNodes 	0
scalar RSUExampleScenario.node[29].appl 	meanClusterHeadUtility 	0
scalar RSUExampleScenario.node[29].appl 	NumberofCH 	0
scalar RSUExampleScenario.node[29].appl 	NumberofON 	0.54054054054054
scalar RSUExampleScenario.node[29].appl 	NumberofFN 	0.45945945945946
scalar RSUExampleScenario.node[29].veinsmobility 	startTime 	69.9
scalar RSUExampleScenario.node[29].veinsmobility 	totalTime 	380.1
scalar RSUExampleScenario.node[29].veinsmobility 	stopTime 	450
scalar RSUExampleScenario.node[29].veinsmobility 	minSpeed 	0
scalar RSUExampleScenario.node[29].veinsmobility 	maxSpeed 	13.999900275953
scalar RSUExampleScenario.node[29].veinsmobility 	totalDistance 	2133.4825577826
scalar RSUExampleScenario.node[29].veinsmobility 	totalCO2Emission 	651.0203169187
scalar RSUExampleScenario.node[3].appl 	meanClusterNodes 	8.5
scalar RSUExampleScenario.node[3].appl 	meanClusterHeadUtility 	18.021669410291
scalar RSUExampleScenario.node[3].appl 	NumberofCH 	0.054054054054054
scalar RSUExampleScenario.node[3].appl 	NumberofON 	0.18918918918919
scalar RSUExampleScenario.node[3].appl 	NumberofFN 	0.75675675675676
scalar RSUExampleScenario.node[3].veinsmobility 	startTime 	7.3
scalar RSUExampleScenario.node[3].veinsmobility 	totalTime 	442.7
scalar RSUExampleScenario.node[3].veinsmobility 	stopTime 	450
scalar RSUExampleScenario.node[3].veinsmobility 	minSpeed 	0
scalar RSUExampleScenario.node[3].veinsmobility 	maxSpeed 	13.99993156648
scalar RSUExampleScenario.node[3].veinsmobility 	totalDistance 	2994.2160781257
scalar RSUExampleScenario.node[3].veinsmobility 	totalCO2Emission 	813.61013214024
scalar RSUExampleScenario.node[30].appl 	meanClusterNodes 	7
scalar RSUExampleScenario.node[30].appl 	meanClusterHeadUtility 	16.933331649557
scalar RSUExampleScenario.node[30].appl 	NumberofCH 	0.054054054054054
scalar RSUExampleScenario.node[30].appl 	NumberofON 	0.48648648648649
scalar RSUExampleScenario.node[30].appl 	NumberofFN 	0.45945945945946
scalar RSUExampleScenario.node[30].veinsmobility 	startTime 	72.4
scalar RSUExampleScenario.node[30].veinsmobility 	totalTime 	377.6
scalar RSUExampleScenario.node[30].veinsmobility 	stopTime 	450
scalar RSUExampleScenario.node[30].veinsmobility 	minSpeed 	0
scalar RSUExampleScenario.node[30].veinsmobility 	maxSpeed 	13.999880434866
scalar RSUExampleScenario.node[30].veinsmobility 	totalDistance 	2101.3287022591
scalar RSUExampleScenario.node[30].veinsmobility 	totalCO2Emission 	643.31590531082
scalar RSUExampleScenario.node[31].appl 	meanClusterNodes 	0
scalar RSUExampleScenario.node[31].appl 	meanClusterHeadUtility 	0
scalar RSUExampleScenario.node[31].appl 	NumberofCH 	0
scalar RSUExampleScenario.node[31].appl 	NumberofON 	0.43243243243243
scalar RSUExampleScenario.node[31].appl 	NumberofFN 	0.56756756756757
scalar RSUExampleScenario.node[31].veinsmobility 	startTime 	74.8
scalar RSUExampleScenario.node[31].veinsmobility 	totalTime 	375.2
scalar RSUExampleScenario.node[31].veinsmobility 	stopTime 	450
scalar RSUExampleScenario.node[31].veinsmobility 	minSpeed 	0
scalar RSUExampleScenario.node[31].veinsmobility 	maxSpeed 	13.999980735185
scalar RSUExampleScenario.node[31].veinsmobility 	totalDistance 	2065.8550538056
scalar RSUExampleScenario.node[31].veinsmobility 	totalCO2Emission 	638.21830656691
scalar RSUExampleScenario.node[32].appl 	meanClusterNodes 	8
scalar RSUExampleScenario.node[32].appl 	meanClusterHeadUtility 	17.114747730971
scalar RSUExampleScenario.node[32].appl 	NumberofCH 	0.054054054054054
scalar RSUExampleScenario.node[32].appl 	NumberofON 	0.37837837837838
scalar RSUExampleScenario.node[32].appl 	NumberofFN 	0.56756756756757
scalar RSUExampleScenario.node[32].veinsmobility 	startTime 	77.2
scalar RSUExampleScenario.node[32].veinsmobility 	totalTime 	372.8
scalar RSUExampleScenario.node[32].veinsmobility 	stopTime 	450
scalar RSUExampleScenario.node[32].veinsmobility 	minSpeed 	0
scalar RSUExampleScenario.node[32].veinsmobility 	maxSpeed 	13.999776225104
scalar RSUExampleScenario.node[32].veinsmobility 	totalDistance 	2034.0948245901
scalar RSUExampleScenario.node[32].veinsmobility 	totalCO2Emission 	633.95265641072
scalar RSUExampleScenario.node[33].appl 	meanClusterNodes 	12
scalar RSUExampleScenario.node[33].appl 	meanClusterHeadUtility 	17.361118917452
scalar RSUExampleScenario.node[33].appl 	NumberofCH 	0.054054054054054
scalar RSUExampleScenario.node[33].appl 	NumberofON 	0.24324324324324
scalar RSUExampleScenario.node[33].appl 	NumberofFN 	0.7027027027027
scalar RSUExampleScenario.node[33].veinsmobility 	startTime 	79.6
scalar RSUExampleScenario.node[33].veinsmobility 	totalTime 	370.4
scalar RSUExampleScenario.node[33].veinsmobility 	stopTime 	450
scalar RSUExampleScenario.node[33].veinsmobility 	minSpeed 	0
scalar RSUExampleScenario.node[33].veinsmobility 	maxSpeed 	13.999920314478
scalar RSUExampleScenario.node[33].veinsmobility 	totalDistance 	1997.2440785442
scalar RSUExampleScenario.node[33].veinsmobility 	totalCO2Emission 	625.89459553017
scalar RSUExampleScenario.node[34].appl 	meanClusterNodes 	0
scalar RSUExampleScenario.node[34].appl 	meanClusterHeadUtility 	0
scalar RSUExampleScenario.node[34].appl 	NumberofCH 	0
scalar RSUExampleScenario.node[34].appl 	NumberofON 	0.54054054054054
scalar RSUExampleScenario.node[34].appl 	NumberofFN 	0.45945945945946
scalar RSUExampleScenario.node[34].veinsmobility 	startTime 	82
scalar RSUExampleScenario.node[34].veinsmobility 	totalTime 	368
scalar RSUExampleScenario.node[34].veinsmobility 	stopTime 	450
scalar RSUExampleScenario.node[34].veinsmobility 	minSpeed 	0
scalar RSUExampleScenario.node[34].veinsmobility 	maxSpeed 	13.999834168013
scalar RSUExampleScenario.node[34].veinsmobility 	totalDistance 	1964.3431358054
scalar RSUExampleScenario.node[34].veinsmobility 	totalCO2Emission 	623.2695706448
scalar RSUExampleScenario.node[35].appl 	meanClusterNodes 	0
scalar RSUExampleScenario.node[35].appl 	meanClusterHeadUtility 	0
scalar RSUExampleScenario.node[35].appl 	NumberofCH 	0
scalar RSUExampleScenario.node[35].appl 	NumberofON 	0.56756756756757
scalar RSUExampleScenario.node[35].appl 	NumberofFN 	0.43243243243243
scalar RSUExampleScenario.node[35].veinsmobility 	startTime 	84.4
scalar RSUExampleScenario.node[35].veinsmobility 	totalTime 	365.6
scalar RSUExampleScenario.node[35].veinsmobility 	stopTime 	450
scalar RSUExampleScenario.node[35].veinsmobility 	minSpeed 	0
scalar RSUExampleScenario.node[35].veinsmobility 	maxSpeed 	13.99984369589
scalar RSUExampleScenario.node[35].veinsmobility 	totalDistance 	1931.3417615383
scalar RSUExampleScenario.node[35].veinsmobility 	totalCO2Emission 	616.17529885813
scalar RSUExampleScenario.node[36].appl 	meanClusterNodes 	11.75
scalar RSUExampleScenario.node[36].appl 	meanClusterHeadUtility 	9.0860359362751
scalar RSUExampleScenario.node[36].appl 	NumberofCH 	0.10810810810811
scalar RSUExampleScenario.node[36].appl 	NumberofON 	0.2972972972973
scalar RSUExampleScenario.node[36].appl 	NumberofFN 	0.59459459459459
scalar RSUExampleScenario.node[36].veinsmobility 	startTime 	86.8
scalar RSUExampleScenario.node[36].veinsmobility 	totalTime 	363.2
scalar RSUExampleScenario.node[36].veinsmobility 	stopTime 	450
scalar RSUExampleScenario.node[36].veinsmobility 	minSpeed 	0
scalar RSUExampleScenario.node[36].veinsmobility 	maxSpeed 	13.999841441319
scalar RSUExampleScenario.node[36].veinsmobility 	totalDistance 	1897.9775473938
scalar RSUExampleScenario.node[36].veinsmobility 	totalCO2Emission 	607.40082962792
scalar RSUExampleScenario.node[37].appl 	meanClusterNodes 	0
scalar RSUExampleScenario.node[37].appl 	meanClusterHeadUtility 	0
scalar RSUExampleScenario.node[37].appl 	NumberofCH 	0.054054054054054
scalar RSUExampleScenario.node[37].appl 	NumberofON 	0.37837837837838
scalar RSUExampleScenario.node[37].appl 	NumberofFN 	0.56756756756757
scalar RSUExampleScenario.node[37].veinsmobility 	startTime 	89.2
scalar RSUExampleScenario.node[37].veinsmobility 	totalTime 	360.8
scalar RSUExampleScenario.node[37].veinsmobility 	stopTime 	450
scalar RSUExampleScenario.node[37].veinsmobility 	minSpeed 	0
scalar RSUExampleScenario.node[37].veinsmobility 	maxSpeed 	13.99955827062
scalar RSUExampleScenario.node[37].veinsmobility 	totalDistance 	1864.7636403031
scalar RSUExampleScenario.node[37].veinsmobility 	totalCO2Emission 	602.48438050346
scalar RSUExampleScenario.node[38].appl 	meanClusterNodes 	11
scalar RSUExampleScenario.node[38].appl 	meanClusterHeadUtility 	16.270124652676
scalar RSUExampleScenario.node[38].appl 	NumberofCH 	0.054054054054054
scalar RSUExampleScenario.node[38].appl 	NumberofON 	0.2972972972973
scalar RSUExampleScenario.node[38].appl 	NumberofFN 	0.64864864864865
scalar RSUExampleScenario.node[38].veinsmobility 	startTime 	91.6
scalar RSUExampleScenario.node[38].veinsmobility 	totalTime 	358.4
scalar RSUExampleScenario.node[38].veinsmobility 	stopTime 	450
scalar RSUExampleScenario.node[38].veinsmobility 	minSpeed 	0
scalar RSUExampleScenario.node[38].veinsmobility 	maxSpeed 	13.999730935998
scalar RSUExampleScenario.node[38].veinsmobility 	totalDistance 	1827.1589147753
scalar RSUExampleScenario.node[38].veinsmobility 	totalCO2Emission 	598.4977261289
scalar RSUExampleScenario.node[39].appl 	meanClusterNodes 	5
scalar RSUExampleScenario.node[39].appl 	meanClusterHeadUtility 	18.236430789898
scalar RSUExampleScenario.node[39].appl 	NumberofCH 	0.054054054054054
scalar RSUExampleScenario.node[39].appl 	NumberofON 	0.45945945945946
scalar RSUExampleScenario.node[39].appl 	NumberofFN 	0.48648648648649
scalar RSUExampleScenario.node[39].veinsmobility 	startTime 	94
scalar RSUExampleScenario.node[39].veinsmobility 	totalTime 	356
scalar RSUExampleScenario.node[39].veinsmobility 	stopTime 	450
scalar RSUExampleScenario.node[39].veinsmobility 	minSpeed 	0
scalar RSUExampleScenario.node[39].veinsmobility 	maxSpeed 	13.999980229044
scalar RSUExampleScenario.node[39].veinsmobility 	totalDistance 	1795.9723747244
scalar RSUExampleScenario.node[39].veinsmobility 	totalCO2Emission 	594.03158594613
scalar RSUExampleScenario.node[4].appl 	meanClusterNodes 	0
scalar RSUExampleScenario.node[4].appl 	meanClusterHeadUtility 	0
scalar RSUExampleScenario.node[4].appl 	NumberofCH 	0
scalar RSUExampleScenario.node[4].appl 	NumberofON 	0.24324324324324
scalar RSUExampleScenario.node[4].appl 	NumberofFN 	0.75675675675676
scalar RSUExampleScenario.node[4].veinsmobility 	startTime 	9.7
scalar RSUExampleScenario.node[4].veinsmobility 	totalTime 	440.3
scalar RSUExampleScenario.node[4].veinsmobility 	stopTime 	450
scalar RSUExampleScenario.node[4].veinsmobility 	minSpeed 	0
scalar RSUExampleScenario.node[4].veinsmobility 	maxSpeed 	13.999998039997
scalar RSUExampleScenario.node[4].veinsmobility 	totalDistance 	2953.5067551148
scalar RSUExampleScenario.node[4].veinsmobility 	totalCO2Emission 	799.59588593949
scalar RSUExampleScenario.node[40].appl 	meanClusterNodes 	0
scalar RSUExampleScenario.node[40].appl 	meanClusterHeadUtility 	0
scalar RSUExampleScenario.node[40].appl 	NumberofCH 	0
scalar RSUExampleScenario.node[40].appl 	NumberofON 	0.51351351351351
scalar RSUExampleScenario.node[40].appl 	NumberofFN 	0.48648648648649
scalar RSUExampleScenario.node[40].veinsmobility 	startTime 	96.5
scalar RSUExampleScenario.node[40].veinsmobility 	totalTime 	353.5
scalar RSUExampleScenario.node[40].veinsmobility 	stopTime 	450
scalar RSUExampleScenario.node[40].veinsmobility 	minSpeed 	0
scalar RSUExampleScenario.node[40].veinsmobility 	maxSpeed 	13.999920754242
scalar RSUExampleScenario.node[40].veinsmobility 	totalDistance 	1762.209198238
scalar RSUExampleScenario.node[40].veinsmobility 	totalCO2Emission 	585.64813920807
scalar RSUExampleScenario.node[41].appl 	meanClusterNodes 	10.5
scalar RSUExampleScenario.node[41].appl 	meanClusterHeadUtility 	18.068840623485
scalar RSUExampleScenario.node[41].appl 	NumberofCH 	0.054054054054054
scalar RSUExampleScenario.node[41].appl 	NumberofON 	0.37837837837838
scalar RSUExampleScenario.node[41].appl 	NumberofFN 	0.56756756756757
scalar RSUExampleScenario.node[41].veinsmobility 	startTime 	98.9
scalar RSUExampleScenario.node[41].veinsmobility 	totalTime 	351.1
scalar RSUExampleScenario.node[41].veinsmobility 	stopTime 	450
scalar RSUExampleScenario.node[41].veinsmobility 	minSpeed 	0
scalar RSUExampleScenario.node[41].veinsmobility 	maxSpeed 	13.999755349942
scalar RSUExampleScenario.node[41].veinsmobility 	totalDistance 	1729.0425059598
scalar RSUExampleScenario.node[41].veinsmobility 	totalCO2Emission 	581.73482029743
scalar RSUExampleScenario.node[42].appl 	meanClusterNodes 	4.5
scalar RSUExampleScenario.node[42].appl 	meanClusterHeadUtility 	16.971398376814
scalar RSUExampleScenario.node[42].appl 	NumberofCH 	0.054054054054054
scalar RSUExampleScenario.node[42].appl 	NumberofON 	0.37837837837838
scalar RSUExampleScenario.node[42].appl 	NumberofFN 	0.56756756756757
scalar RSUExampleScenario.node[42].veinsmobility 	startTime 	101.3
scalar RSUExampleScenario.node[42].veinsmobility 	totalTime 	348.7
scalar RSUExampleScenario.node[42].veinsmobility 	stopTime 	450
scalar RSUExampleScenario.node[42].veinsmobility 	minSpeed 	0
scalar RSUExampleScenario.node[42].veinsmobility 	maxSpeed 	13.999994350844
scalar RSUExampleScenario.node[42].veinsmobility 	totalDistance 	1695.8690922562
scalar RSUExampleScenario.node[42].veinsmobility 	totalCO2Emission 	574.24034662491
scalar RSUExampleScenario.node[43].appl 	meanClusterNodes 	6
scalar RSUExampleScenario.node[43].appl 	meanClusterHeadUtility 	17.825119990266
scalar RSUExampleScenario.node[43].appl 	NumberofCH 	0.054054054054054
scalar RSUExampleScenario.node[43].appl 	NumberofON 	0.32432432432432
scalar RSUExampleScenario.node[43].appl 	NumberofFN 	0.62162162162162
scalar RSUExampleScenario.node[43].veinsmobility 	startTime 	103.7
scalar RSUExampleScenario.node[43].veinsmobility 	totalTime 	346.3
scalar RSUExampleScenario.node[43].veinsmobility 	stopTime 	450
scalar RSUExampleScenario.node[43].veinsmobility 	minSpeed 	0
scalar RSUExampleScenario.node[43].veinsmobility 	maxSpeed 	13.999959428583
scalar RSUExampleScenario.node[43].veinsmobility 	totalDistance 	1661.6963610059
scalar RSUExampleScenario.node[43].veinsmobility 	totalCO2Emission 	569.31540701143
scalar RSUExampleScenario.node[44].appl 	meanClusterNodes 	0
scalar RSUExampleScenario.node[44].appl 	meanClusterHeadUtility 	0
scalar RSUExampleScenario.node[44].appl 	NumberofCH 	0
scalar RSUExampleScenario.node[44].appl 	NumberofON 	0.45945945945946
scalar RSUExampleScenario.node[44].appl 	NumberofFN 	0.54054054054054
scalar RSUExampleScenario.node[44].veinsmobility 	startTime 	106.1
scalar RSUExampleScenario.node[44].veinsmobility 	totalTime 	343.9
scalar RSUExampleScenario.node[44].veinsmobility 	stopTime 	450
scalar RSUExampleScenario.node[44].veinsmobility 	minSpeed 	0
scalar RSUExampleScenario.node[44].veinsmobility 	maxSpeed 	13.999976623491
scalar RSUExampleScenario.node[44].veinsmobility 	totalDistance 	1628.4207235981
scalar RSUExampleScenario.node[44].veinsmobility 	totalCO2Emission 	562.85506696258
scalar RSUExampleScenario.node[45].appl 	meanClusterNodes 	0
scalar RSUExampleScenario.node[45].appl 	meanClusterHeadUtility 	0
scalar RSUExampleScenario.node[45].appl 	NumberofCH 	0
scalar RSUExampleScenario.node[45].appl 	NumberofON 	0.43243243243243
scalar RSUExampleScenario.node[45].appl 	NumberofFN 	0.56756756756757
scalar RSUExampleScenario.node[45].veinsmobility 	startTime 	108.5
scalar RSUExampleScenario.node[45].veinsmobility 	totalTime 	341.5
scalar RSUExampleScenario.node[45].veinsmobility 	stopTime 	450
scalar RSUExampleScenario.node[45].veinsmobility 	minSpeed 	0
scalar RSUExampleScenario.node[45].veinsmobility 	maxSpeed 	13.999974516477
scalar RSUExampleScenario.node[45].veinsmobility 	totalDistance 	1595.895505074
scalar RSUExampleScenario.node[45].veinsmobility 	totalCO2Emission 	556.63065337045
scalar RSUExampleScenario.node[46].appl 	meanClusterNodes 	3.5
scalar RSUExampleScenario.node[46].appl 	meanClusterHeadUtility 	16.787570732628
scalar RSUExampleScenario.node[46].appl 	NumberofCH 	0.054054054054054
scalar RSUExampleScenario.node[46].appl 	NumberofON 	0.45945945945946
scalar RSUExampleScenario.node[46].appl 	NumberofFN 	0.48648648648649
scalar RSUExampleScenario.node[46].veinsmobility 	startTime 	110.9
scalar RSUExampleScenario.node[46].veinsmobility 	totalTime 	339.1
scalar RSUExampleScenario.node[46].veinsmobility 	stopTime 	450
scalar RSUExampleScenario.node[46].veinsmobility 	minSpeed 	0
scalar RSUExampleScenario.node[46].veinsmobility 	maxSpeed 	13.999890105033
scalar RSUExampleScenario.node[46].veinsmobility 	totalDistance 	1562.4481872315
scalar RSUExampleScenario.node[46].veinsmobility 	totalCO2Emission 	552.5209722501
scalar RSUExampleScenario.node[47].appl 	meanClusterNodes 	5.5
scalar RSUExampleScenario.node[47].appl 	meanClusterHeadUtility 	16.397137271577
scalar RSUExampleScenario.node[47].appl 	NumberofCH 	0.054054054054054
scalar RSUExampleScenario.node[47].appl 	NumberofON 	0.48648648648649
scalar RSUExampleScenario.node[47].appl 	NumberofFN 	0.45945945945946
scalar RSUExampleScenario.node[47].veinsmobility 	startTime 	113.3
scalar RSUExampleScenario.node[47].veinsmobility 	totalTime 	336.7
scalar RSUExampleScenario.node[47].veinsmobility 	stopTime 	450
scalar RSUExampleScenario.node[47].veinsmobility 	minSpeed 	0
scalar RSUExampleScenario.node[47].veinsmobility 	maxSpeed 	13.999892019634
scalar RSUExampleScenario.node[47].veinsmobility 	totalDistance 	1527.0856460739
scalar RSUExampleScenario.node[47].veinsmobility 	totalCO2Emission 	547.16547285263
scalar RSUExampleScenario.node[48].appl 	meanClusterNodes 	0
scalar RSUExampleScenario.node[48].appl 	meanClusterHeadUtility 	0
scalar RSUExampleScenario.node[48].appl 	NumberofCH 	0
scalar RSUExampleScenario.node[48].appl 	NumberofON 	0
scalar RSUExampleScenario.node[48].appl 	NumberofFN 	1
scalar RSUExampleScenario.node[48].veinsmobility 	startTime 	115.7
scalar RSUExampleScenario.node[48].veinsmobility 	totalTime 	334.3
scalar RSUExampleScenario.node[48].veinsmobility 	stopTime 	450
scalar RSUExampleScenario.node[48].veinsmobility 	minSpeed 	0
scalar RSUExampleScenario.node[48].veinsmobility 	maxSpeed 	13.999915530502
scalar RSUExampleScenario.node[48].veinsmobility 	totalDistance 	1492.8556042371
scalar RSUExampleScenario.node[48].veinsmobility 	totalCO2Emission 	540.27038941165
scalar RSUExampleScenario.node[49].appl 	meanClusterNodes 	0
scalar RSUExampleScenario.node[49].appl 	meanClusterHeadUtility 	0
scalar RSUExampleScenario.node[49].appl 	NumberofCH 	0
scalar RSUExampleScenario.node[49].appl 	NumberofON 	0.56756756756757
scalar RSUExampleScenario.node[49].appl 	NumberofFN 	0.43243243243243
scalar RSUExampleScenario.node[49].veinsmobility 	startTime 	118.1
scalar RSUExampleScenario.node[49].veinsmobility 	totalTime 	331.9
scalar RSUExampleScenario.node[49].veinsmobility 	stopTime 	450
scalar RSUExampleScenario.node[49].veinsmobility 	minSpeed 	0
scalar RSUExampleScenario.node[49].veinsmobility 	maxSpeed 	13.999794395277
scalar RSUExampleScenario.node[49].veinsmobility 	totalDistance 	1459.9963623114
scalar RSUExampleScenario.node[49].veinsmobility 	totalCO2Emission 	534.94102583461
scalar RSUExampleScenario.node[5].appl 	meanClusterNodes 	6.5
scalar RSUExampleScenario.node[5].appl 	meanClusterHeadUtility 	8.3092228144504
scalar RSUExampleScenario.node[5].appl 	NumberofCH 	0.10810810810811
scalar RSUExampleScenario.node[5].appl 	NumberofON 	0.24324324324324
scalar RSUExampleScenario.node[5].appl 	NumberofFN 	0.64864864864865
scalar RSUExampleScenario.node[5].veinsmobility 	startTime 	12.1
scalar RSUExampleScenario.node[5].veinsmobility 	totalTime 	437.9
scalar RSUExampleScenario.node[5].veinsmobility 	stopTime 	450
scalar RSUExampleScenario.node[5].veinsmobility 	minSpeed 	0
scalar RSUExampleScenario.node[5].veinsmobility 	maxSpeed 	13.999845283597
scalar RSUExampleScenario.node[5].veinsmobility 	totalDistance 	2914.7366102696
scalar RSUExampleScenario.node[5].veinsmobility 	totalCO2Emission 	778.60135279859
scalar RSUExampleScenario.node[50].appl 	meanClusterNodes 	0
scalar RSUExampleScenario.node[50].appl 	meanClusterHeadUtility 	0
scalar RSUExampleScenario.node[50].appl 	NumberofCH 	0
scalar RSUExampleScenario.node[50].appl 	NumberofON 	0.37837837837838
scalar RSUExampleScenario.node[50].appl 	NumberofFN 	0.62162162162162
scalar RSUExampleScenario.node[50].veinsmobility 	startTime 	120.6
scalar RSUExampleScenario.node[50].veinsmobility 	totalTime 	329.4
scalar RSUExampleScenario.node[50].veinsmobility 	stopTime 	450
scalar RSUExampleScenario.node[50].veinsmobility 	minSpeed 	0
scalar RSUExampleScenario.node[50].veinsmobility 	maxSpeed 	13.999886851346
scalar RSUExampleScenario.node[50].veinsmobility 	totalDistance 	1426.4323834361
scalar RSUExampleScenario.node[50].veinsmobility 	totalCO2Emission 	530.24692056776
scalar RSUExampleScenario.node[51].appl 	meanClusterNodes 	2
scalar RSUExampleScenario.node[51].appl 	meanClusterHeadUtility 	33.056757684623
scalar RSUExampleScenario.node[51].appl 	NumberofCH 	0.027027027027027
scalar RSUExampleScenario.node[51].appl 	NumberofON 	0.54054054054054
scalar RSUExampleScenario.node[51].appl 	NumberofFN 	0.43243243243243
scalar RSUExampleScenario.node[51].veinsmobility 	startTime 	123
scalar RSUExampleScenario.node[51].veinsmobility 	totalTime 	327
scalar RSUExampleScenario.node[51].veinsmobility 	stopTime 	450
scalar RSUExampleScenario.node[51].veinsmobility 	minSpeed 	0
scalar RSUExampleScenario.node[51].veinsmobility 	maxSpeed 	13.999577227246
scalar RSUExampleScenario.node[51].veinsmobility 	totalDistance 	1394.42586717
scalar RSUExampleScenario.node[51].veinsmobility 	totalCO2Emission 	525.94040175663
scalar RSUExampleScenario.node[52].appl 	meanClusterNodes 	9.5
scalar RSUExampleScenario.node[52].appl 	meanClusterHeadUtility 	16.464836213457
scalar RSUExampleScenario.node[52].appl 	NumberofCH 	0.054054054054054
scalar RSUExampleScenario.node[52].appl 	NumberofON 	0.24324324324324
scalar RSUExampleScenario.node[52].appl 	NumberofFN 	0.7027027027027
scalar RSUExampleScenario.node[52].veinsmobility 	startTime 	125.4
scalar RSUExampleScenario.node[52].veinsmobility 	totalTime 	324.6
scalar RSUExampleScenario.node[52].veinsmobility 	stopTime 	450
scalar RSUExampleScenario.node[52].veinsmobility 	minSpeed 	0
scalar RSUExampleScenario.node[52].veinsmobility 	maxSpeed 	13.999976347145
scalar RSUExampleScenario.node[52].veinsmobility 	totalDistance 	1358.7553599112
scalar RSUExampleScenario.node[52].veinsmobility 	totalCO2Emission 	518.13473999633
scalar RSUExampleScenario.node[53].appl 	meanClusterNodes 	5.5
scalar RSUExampleScenario.node[53].appl 	meanClusterHeadUtility 	16.752010092418
scalar RSUExampleScenario.node[53].appl 	NumberofCH 	0.054054054054054
scalar RSUExampleScenario.node[53].appl 	NumberofON 	0.48648648648649
scalar RSUExampleScenario.node[53].appl 	NumberofFN 	0.45945945945946
scalar RSUExampleScenario.node[53].veinsmobility 	startTime 	127.8
scalar RSUExampleScenario.node[53].veinsmobility 	totalTime 	322.2
scalar RSUExampleScenario.node[53].veinsmobility 	stopTime 	450
scalar RSUExampleScenario.node[53].veinsmobility 	minSpeed 	0
scalar RSUExampleScenario.node[53].veinsmobility 	maxSpeed 	13.999757506172
scalar RSUExampleScenario.node[53].veinsmobility 	totalDistance 	1325.2790750882
scalar RSUExampleScenario.node[53].veinsmobility 	totalCO2Emission 	512.05211272696
scalar RSUExampleScenario.node[54].appl 	meanClusterNodes 	5
scalar RSUExampleScenario.node[54].appl 	meanClusterHeadUtility 	16.104610987218
scalar RSUExampleScenario.node[54].appl 	NumberofCH 	0.054054054054054
scalar RSUExampleScenario.node[54].appl 	NumberofON 	0.21621621621622
scalar RSUExampleScenario.node[54].appl 	NumberofFN 	0.72972972972973
scalar RSUExampleScenario.node[54].veinsmobility 	startTime 	130.2
scalar RSUExampleScenario.node[54].veinsmobility 	totalTime 	319.8
scalar RSUExampleScenario.node[54].veinsmobility 	stopTime 	450
scalar RSUExampleScenario.node[54].veinsmobility 	minSpeed 	0
scalar RSUExampleScenario.node[54].veinsmobility 	maxSpeed 	13.999835647482
scalar RSUExampleScenario.node[54].veinsmobility 	totalDistance 	1293.1011872276
scalar RSUExampleScenario.node[54].veinsmobility 	totalCO2Emission 	507.6104722168
scalar RSUExampleScenario.node[55].appl 	meanClusterNodes 	0
scalar RSUExampleScenario.node[55].appl 	meanClusterHeadUtility 	0
scalar RSUExampleScenario.node[55].appl 	NumberofCH 	0
scalar RSUExampleScenario.node[55].appl 	NumberofON 	0.43243243243243
scalar RSUExampleScenario.node[55].appl 	NumberofFN 	0.56756756756757
scalar RSUExampleScenario.node[55].veinsmobility 	startTime 	132.6
scalar RSUExampleScenario.node[55].veinsmobility 	totalTime 	317.4
scalar RSUExampleScenario.node[55].veinsmobility 	stopTime 	450
scalar RSUExampleScenario.node[55].veinsmobility 	minSpeed 	0
scalar RSUExampleScenario.node[55].veinsmobility 	maxSpeed 	13.999634534044
scalar RSUExampleScenario.node[55].veinsmobility 	totalDistance 	1259.0354528554
scalar RSUExampleScenario.node[55].veinsmobility 	totalCO2Emission 	500.41806397177
scalar RSUExampleScenario.node[56].appl 	meanClusterNodes 	7.5
scalar RSUExampleScenario.node[56].appl 	meanClusterHeadUtility 	19.285811908075
scalar RSUExampleScenario.node[56].appl 	NumberofCH 	0.054054054054054
scalar RSUExampleScenario.node[56].appl 	NumberofON 	0.43243243243243
scalar RSUExampleScenario.node[56].appl 	NumberofFN 	0.51351351351351
scalar RSUExampleScenario.node[56].veinsmobility 	startTime 	135
scalar RSUExampleScenario.node[56].veinsmobility 	totalTime 	315
scalar RSUExampleScenario.node[56].veinsmobility 	stopTime 	450
scalar RSUExampleScenario.node[56].veinsmobility 	minSpeed 	0
scalar RSUExampleScenario.node[56].veinsmobility 	maxSpeed 	13.999958316749
scalar RSUExampleScenario.node[56].veinsmobility 	totalDistance 	1224.9551822333
scalar RSUExampleScenario.node[56].veinsmobility 	totalCO2Emission 	497.14790487037
scalar RSUExampleScenario.node[57].appl 	meanClusterNodes 	5
scalar RSUExampleScenario.node[57].appl 	meanClusterHeadUtility 	18.729799136503
scalar RSUExampleScenario.node[57].appl 	NumberofCH 	0.054054054054054
scalar RSUExampleScenario.node[57].appl 	NumberofON 	0.48648648648649
scalar RSUExampleScenario.node[57].appl 	NumberofFN 	0.45945945945946
scalar RSUExampleScenario.node[57].veinsmobility 	startTime 	137.4
scalar RSUExampleScenario.node[57].veinsmobility 	totalTime 	312.6
scalar RSUExampleScenario.node[57].veinsmobility 	stopTime 	450
scalar RSUExampleScenario.node[57].veinsmobility 	minSpeed 	0
scalar RSUExampleScenario.node[57].veinsmobility 	maxSpeed 	13.999996888391
scalar RSUExampleScenario.node[57].veinsmobility 	totalDistance 	1192.8703827012
scalar RSUExampleScenario.node[57].veinsmobility 	totalCO2Emission 	489.32604386247
scalar RSUExampleScenario.node[58].appl 	meanClusterNodes 	2.5
scalar RSUExampleScenario.node[58].appl 	meanClusterHeadUtility 	15.624869231657
scalar RSUExampleScenario.node[58].appl 	NumberofCH 	0.054054054054054
scalar RSUExampleScenario.node[58].appl 	NumberofON 	0.45945945945946
scalar RSUExampleScenario.node[58].appl 	NumberofFN 	0.48648648648649
scalar RSUExampleScenario.node[58].veinsmobility 	startTime 	139.8
scalar RSUExampleScenario.node[58].veinsmobility 	totalTime 	310.2
scalar RSUExampleScenario.node[58].veinsmobility 	stopTime 	450
scalar RSUExampleScenario.node[58].veinsmobility 	minSpeed 	0
scalar RSUExampleScenario.node[58].veinsmobility 	maxSpeed 	13.999950944739
scalar RSUExampleScenario.node[58].veinsmobility 	totalDistance 	1157.7194677456
scalar RSUExampleScenario.node[58].veinsmobility 	totalCO2Emission 	485.93896096309
scalar RSUExampleScenario.node[59].appl 	meanClusterNodes 	0
scalar RSUExampleScenario.node[59].appl 	meanClusterHeadUtility 	0
scalar RSUExampleScenario.node[59].appl 	NumberofCH 	0
scalar RSUExampleScenario.node[59].appl 	NumberofON 	0.64864864864865
scalar RSUExampleScenario.node[59].appl 	NumberofFN 	0.35135135135135
scalar RSUExampleScenario.node[59].veinsmobility 	startTime 	142.2
scalar RSUExampleScenario.node[59].veinsmobility 	totalTime 	307.8
scalar RSUExampleScenario.node[59].veinsmobility 	stopTime 	450
scalar RSUExampleScenario.node[59].veinsmobility 	minSpeed 	0
scalar RSUExampleScenario.node[59].veinsmobility 	maxSpeed 	13.999476389822
scalar RSUExampleScenario.node[59].veinsmobility 	totalDistance 	1122.8750120485
scalar RSUExampleScenario.node[59].veinsmobility 	totalCO2Emission 	478.87784695509
scalar RSUExampleScenario.node[6].appl 	meanClusterNodes 	6
scalar RSUExampleScenario.node[6].appl 	meanClusterHeadUtility 	19.063073885111
scalar RSUExampleScenario.node[6].appl 	NumberofCH 	0.054054054054054
scalar RSUExampleScenario.node[6].appl 	NumberofON 	0.16216216216216
scalar RSUExampleScenario.node[6].appl 	NumberofFN 	0.78378378378378
scalar RSUExampleScenario.node[6].veinsmobility 	startTime 	14.5
scalar RSUExampleScenario.node[6].veinsmobility 	totalTime 	435.5
scalar RSUExampleScenario.node[6].veinsmobility 	stopTime 	450
scalar RSUExampleScenario.node[6].veinsmobility 	minSpeed 	0
scalar RSUExampleScenario.node[6].veinsmobility 	maxSpeed 	13.999897567846
scalar RSUExampleScenario.node[6].veinsmobility 	totalDistance 	2906.5006571901
scalar RSUExampleScenario.node[6].veinsmobility 	totalCO2Emission 	775.22885604073
scalar RSUExampleScenario.node[60].appl 	meanClusterNodes 	14.5
scalar RSUExampleScenario.node[60].appl 	meanClusterHeadUtility 	17.283971998877
scalar RSUExampleScenario.node[60].appl 	NumberofCH 	0.054054054054054
scalar RSUExampleScenario.node[60].appl 	NumberofON 	0.2972972972973
scalar RSUExampleScenario.node[60].appl 	NumberofFN 	0.64864864864865
scalar RSUExampleScenario.node[60].veinsmobility 	startTime 	144.7
scalar RSUExampleScenario.node[60].veinsmobility 	totalTime 	305.3
scalar RSUExampleScenario.node[60].veinsmobility 	stopTime 	450
scalar RSUExampleScenario.node[60].veinsmobility 	minSpeed 	0
scalar RSUExampleScenario.node[60].veinsmobility 	maxSpeed 	13.999947208823
scalar RSUExampleScenario.node[60].veinsmobility 	totalDistance 	1092.0050882312
scalar RSUExampleScenario.node[60].veinsmobility 	totalCO2Emission 	474.95795675883
scalar RSUExampleScenario.node[61].appl 	meanClusterNodes 	0
scalar RSUExampleScenario.node[61].appl 	meanClusterHeadUtility 	0
scalar RSUExampleScenario.node[61].appl 	NumberofCH 	0.054054054054054
scalar RSUExampleScenario.node[61].appl 	NumberofON 	0
scalar RSUExampleScenario.node[61].appl 	NumberofFN 	0.94594594594595
scalar RSUExampleScenario.node[61].veinsmobility 	startTime 	147.1
scalar RSUExampleScenario.node[61].veinsmobility 	totalTime 	302.9
scalar RSUExampleScenario.node[61].veinsmobility 	stopTime 	450
scalar RSUExampleScenario.node[61].veinsmobility 	minSpeed 	0
scalar RSUExampleScenario.node[61].veinsmobility 	maxSpeed 	13.999910692468
scalar RSUExampleScenario.node[61].veinsmobility 	totalDistance 	1057.1499389574
scalar RSUExampleScenario.node[61].veinsmobility 	totalCO2Emission 	468.24803258853
scalar RSUExampleScenario.node[62].appl 	meanClusterNodes 	9.5
scalar RSUExampleScenario.node[62].appl 	meanClusterHeadUtility 	17.147000879819
scalar RSUExampleScenario.node[62].appl 	NumberofCH 	0.054054054054054
scalar RSUExampleScenario.node[62].appl 	NumberofON 	0.32432432432432
scalar RSUExampleScenario.node[62].appl 	NumberofFN 	0.62162162162162
scalar RSUExampleScenario.node[62].veinsmobility 	startTime 	149.5
scalar RSUExampleScenario.node[62].veinsmobility 	totalTime 	300.5
scalar RSUExampleScenario.node[62].veinsmobility 	stopTime 	450
scalar RSUExampleScenario.node[62].veinsmobility 	minSpeed 	0
scalar RSUExampleScenario.node[62].veinsmobility 	maxSpeed 	13.999669321915
scalar RSUExampleScenario.node[62].veinsmobility 	totalDistance 	1023.8872514367
scalar RSUExampleScenario.node[62].veinsmobility 	totalCO2Emission 	460.94408919986
scalar RSUExampleScenario.node[63].appl 	meanClusterNodes 	6
scalar RSUExampleScenario.node[63].appl 	meanClusterHeadUtility 	17.314951626417
scalar RSUExampleScenario.node[63].appl 	NumberofCH 	0.054054054054054
scalar RSUExampleScenario.node[63].appl 	NumberofON 	0.40540540540541
scalar RSUExampleScenario.node[63].appl 	NumberofFN 	0.54054054054054
scalar RSUExampleScenario.node[63].veinsmobility 	startTime 	151.9
scalar RSUExampleScenario.node[63].veinsmobility 	totalTime 	298.1
scalar RSUExampleScenario.node[63].veinsmobility 	stopTime 	450
scalar RSUExampleScenario.node[63].veinsmobility 	minSpeed 	0
scalar RSUExampleScenario.node[63].veinsmobility 	maxSpeed 	13.997145616482
scalar RSUExampleScenario.node[63].veinsmobility 	totalDistance 	983.84343509467
scalar RSUExampleScenario.node[63].veinsmobility 	totalCO2Emission 	448.09183887429
scalar RSUExampleScenario.node[64].appl 	meanClusterNodes 	11
scalar RSUExampleScenario.node[64].appl 	meanClusterHeadUtility 	9.4836221201572
scalar RSUExampleScenario.node[64].appl 	NumberofCH 	0.10810810810811
scalar RSUExampleScenario.node[64].appl 	NumberofON 	0.10810810810811
scalar RSUExampleScenario.node[64].appl 	NumberofFN 	0.78378378378378
scalar RSUExampleScenario.node[64].veinsmobility 	startTime 	154.3
scalar RSUExampleScenario.node[64].veinsmobility 	totalTime 	295.7
scalar RSUExampleScenario.node[64].veinsmobility 	stopTime 	450
scalar RSUExampleScenario.node[64].veinsmobility 	minSpeed 	0
scalar RSUExampleScenario.node[64].veinsmobility 	maxSpeed 	13.999974768034
scalar RSUExampleScenario.node[64].veinsmobility 	totalDistance 	953.2968937328
scalar RSUExampleScenario.node[64].veinsmobility 	totalCO2Emission 	437.65228688278
scalar RSUExampleScenario.node[65].appl 	meanClusterNodes 	0
scalar RSUExampleScenario.node[65].appl 	meanClusterHeadUtility 	0
scalar RSUExampleScenario.node[65].appl 	NumberofCH 	0
scalar RSUExampleScenario.node[65].appl 	NumberofON 	0.37837837837838
scalar RSUExampleScenario.node[65].appl 	NumberofFN 	0.62162162162162
scalar RSUExampleScenario.node[65].veinsmobility 	startTime 	156.7
scalar RSUExampleScenario.node[65].veinsmobility 	totalTime 	293.3
scalar RSUExampleScenario.node[65].veinsmobility 	stopTime 	450
scalar RSUExampleScenario.node[65].veinsmobility 	minSpeed 	0
scalar RSUExampleScenario.node[65].veinsmobility 	maxSpeed 	13.999772229064
scalar RSUExampleScenario.node[65].veinsmobility 	totalDistance 	940.26530919124
scalar RSUExampleScenario.node[65].veinsmobility 	totalCO2Emission 	427.45256622427
scalar RSUExampleScenario.node[66].appl 	meanClusterNodes 	0
scalar RSUExampleScenario.node[66].appl 	meanClusterHeadUtility 	0
scalar RSUExampleScenario.node[66].appl 	NumberofCH 	0
scalar RSUExampleScenario.node[66].appl 	NumberofON 	0.64864864864865
scalar RSUExampleScenario.node[66].appl 	NumberofFN 	0.35135135135135
scalar RSUExampleScenario.node[66].veinsmobility 	startTime 	159.1
scalar RSUExampleScenario.node[66].veinsmobility 	totalTime 	290.9
scalar RSUExampleScenario.node[66].veinsmobility 	stopTime 	450
scalar RSUExampleScenario.node[66].veinsmobility 	minSpeed 	0
scalar RSUExampleScenario.node[66].veinsmobility 	maxSpeed 	13.999664174542
scalar RSUExampleScenario.node[66].veinsmobility 	totalDistance 	927.73841503723
scalar RSUExampleScenario.node[66].veinsmobility 	totalCO2Emission 	422.57311737531
scalar RSUExampleScenario.node[67].appl 	meanClusterNodes 	0
scalar RSUExampleScenario.node[67].appl 	meanClusterHeadUtility 	0
scalar RSUExampleScenario.node[67].appl 	NumberofCH 	0
scalar RSUExampleScenario.node[67].appl 	NumberofON 	0.35135135135135
scalar RSUExampleScenario.node[67].appl 	NumberofFN 	0.64864864864865
scalar RSUExampleScenario.node[67].veinsmobility 	startTime 	161.5
scalar RSUExampleScenario.node[67].veinsmobility 	totalTime 	288.5
scalar RSUExampleScenario.node[67].veinsmobility 	stopTime 	450
scalar RSUExampleScenario.node[67].veinsmobility 	minSpeed 	0
scalar RSUExampleScenario.node[67].veinsmobility 	maxSpeed 	13.999947649736
scalar RSUExampleScenario.node[67].veinsmobility 	totalDistance 	912.36194408067
scalar RSUExampleScenario.node[67].veinsmobility 	totalCO2Emission 	421.39967828151
scalar RSUExampleScenario.node[68].appl 	meanClusterNodes 	0
scalar RSUExampleScenario.node[68].appl 	meanClusterHeadUtility 	0
scalar RSUExampleScenario.node[68].appl 	NumberofCH 	0
scalar RSUExampleScenario.node[68].appl 	NumberofON 	0.62162162162162
scalar RSUExampleScenario.node[68].appl 	NumberofFN 	0.37837837837838
scalar RSUExampleScenario.node[68].veinsmobility 	startTime 	163.9
scalar RSUExampleScenario.node[68].veinsmobility 	totalTime 	286.1
scalar RSUExampleScenario.node[68].veinsmobility 	stopTime 	450
scalar RSUExampleScenario.node[68].veinsmobility 	minSpeed 	0
scalar RSUExampleScenario.node[68].veinsmobility 	maxSpeed 	13.99985834402
scalar RSUExampleScenario.node[68].veinsmobility 	totalDistance 	891.584011635
scalar RSUExampleScenario.node[68].veinsmobility 	totalCO2Emission 	419.35734789127
scalar RSUExampleScenario.node[69].appl 	meanClusterNodes 	0
scalar RSUExampleScenario.node[69].appl 	meanClusterHeadUtility 	0
scalar RSUExampleScenario.node[69].appl 	NumberofCH 	0
scalar RSUExampleScenario.node[69].appl 	NumberofON 	0.35135135135135
scalar RSUExampleScenario.node[69].appl 	NumberofFN 	0.64864864864865
scalar RSUExampleScenario.node[69].veinsmobility 	startTime 	166.3
scalar RSUExampleScenario.node[69].veinsmobility 	totalTime 	283.7
scalar RSUExampleScenario.node[69].veinsmobility 	stopTime 	450
scalar RSUExampleScenario.node[69].veinsmobility 	minSpeed 	0
scalar RSUExampleScenario.node[69].veinsmobility 	maxSpeed 	13.999867957404
scalar RSUExampleScenario.node[69].veinsmobility 	totalDistance 	859.1773925844
scalar RSUExampleScenario.node[69].veinsmobility 	totalCO2Emission 	413.76628069872
scalar RSUExampleScenario.node[7].appl 	meanClusterNodes 	5.5
scalar RSUExampleScenario.node[7].appl 	meanClusterHeadUtility 	17.24995335934
scalar RSUExampleScenario.node[7].appl 	NumberofCH 	0.054054054054054
scalar RSUExampleScenario.node[7].appl 	NumberofON 	0.27027027027027
scalar RSUExampleScenario.node[7].appl 	NumberofFN 	0.67567567567568
scalar RSUExampleScenario.node[7].veinsmobility 	startTime 	16.9
scalar RSUExampleScenario.node[7].veinsmobility 	totalTime 	433.1
scalar RSUExampleScenario.node[7].veinsmobility 	stopTime 	450
scalar RSUExampleScenario.node[7].veinsmobility 	minSpeed 	0
scalar RSUExampleScenario.node[7].veinsmobility 	maxSpeed 	13.999882484553
scalar RSUExampleScenario.node[7].veinsmobility 	totalDistance 	2885.8904599493
scalar RSUExampleScenario.node[7].veinsmobility 	totalCO2Emission 	774.96622070375
scalar RSUExampleScenario.node[70].appl 	meanClusterNodes 	6.5
scalar RSUExampleScenario.node[70].appl 	meanClusterHeadUtility 	17.983552228731
scalar RSUExampleScenario.node[70].appl 	NumberofCH 	0.054054054054054
scalar RSUExampleScenario.node[70].appl 	NumberofON 	0.45945945945946
scalar RSUExampleScenario.node[70].appl 	NumberofFN 	0.48648648648649
scalar RSUExampleScenario.node[70].veinsmobility 	startTime 	168.8
scalar RSUExampleScenario.node[70].veinsmobility 	totalTime 	281.2
scalar RSUExampleScenario.node[70].veinsmobility 	stopTime 	450
scalar RSUExampleScenario.node[70].veinsmobility 	minSpeed 	0
scalar RSUExampleScenario.node[70].veinsmobility 	maxSpeed 	13.999925528865
scalar RSUExampleScenario.node[70].veinsmobility 	totalDistance 	825.0348645703
scalar RSUExampleScenario.node[70].veinsmobility 	totalCO2Emission 	409.64015338661
scalar RSUExampleScenario.node[71].appl 	meanClusterNodes 	10
scalar RSUExampleScenario.node[71].appl 	meanClusterHeadUtility 	16.262419707144
scalar RSUExampleScenario.node[71].appl 	NumberofCH 	0.054054054054054
scalar RSUExampleScenario.node[71].appl 	NumberofON 	0.35135135135135
scalar RSUExampleScenario.node[71].appl 	NumberofFN 	0.59459459459459
scalar RSUExampleScenario.node[71].veinsmobility 	startTime 	171.2
scalar RSUExampleScenario.node[71].veinsmobility 	totalTime 	278.8
scalar RSUExampleScenario.node[71].veinsmobility 	stopTime 	450
scalar RSUExampleScenario.node[71].veinsmobility 	minSpeed 	0
scalar RSUExampleScenario.node[71].veinsmobility 	maxSpeed 	13.999873581287
scalar RSUExampleScenario.node[71].veinsmobility 	totalDistance 	791.39901841101
scalar RSUExampleScenario.node[71].veinsmobility 	totalCO2Emission 	403.42313090092
scalar RSUExampleScenario.node[72].appl 	meanClusterNodes 	0
scalar RSUExampleScenario.node[72].appl 	meanClusterHeadUtility 	0
scalar RSUExampleScenario.node[72].appl 	NumberofCH 	0
scalar RSUExampleScenario.node[72].appl 	NumberofON 	0.56756756756757
scalar RSUExampleScenario.node[72].appl 	NumberofFN 	0.43243243243243
scalar RSUExampleScenario.node[72].veinsmobility 	startTime 	173.6
scalar RSUExampleScenario.node[72].veinsmobility 	totalTime 	276.4
scalar RSUExampleScenario.node[72].veinsmobility 	stopTime 	450
scalar RSUExampleScenario.node[72].veinsmobility 	minSpeed 	0
scalar RSUExampleScenario.node[72].veinsmobility 	maxSpeed 	13.99945631555
scalar RSUExampleScenario.node[72].veinsmobility 	totalDistance 	758.38845618087
scalar RSUExampleScenario.node[72].veinsmobility 	totalCO2Emission 	395.68371411546
scalar RSUExampleScenario.node[73].appl 	meanClusterNodes 	5.75
scalar RSUExampleScenario.node[73].appl 	meanClusterHeadUtility 	8.7430351393919
scalar RSUExampleScenario.node[73].appl 	NumberofCH 	0.10810810810811
scalar RSUExampleScenario.node[73].appl 	NumberofON 	0.40540540540541
scalar RSUExampleScenario.node[73].appl 	NumberofFN 	0.48648648648649
scalar RSUExampleScenario.node[73].veinsmobility 	startTime 	176
scalar RSUExampleScenario.node[73].veinsmobility 	totalTime 	274
scalar RSUExampleScenario.node[73].veinsmobility 	stopTime 	450
scalar RSUExampleScenario.node[73].veinsmobility 	minSpeed 	0
scalar RSUExampleScenario.node[73].veinsmobility 	maxSpeed 	13.999240032344
scalar RSUExampleScenario.node[73].veinsmobility 	totalDistance 	724.79435441862
scalar RSUExampleScenario.node[73].veinsmobility 	totalCO2Emission 	390.62419086301
scalar RSUExampleScenario.node[74].appl 	meanClusterNodes 	8.5
scalar RSUExampleScenario.node[74].appl 	meanClusterHeadUtility 	17.165105646296
scalar RSUExampleScenario.node[74].appl 	NumberofCH 	0.054054054054054
scalar RSUExampleScenario.node[74].appl 	NumberofON 	0.27027027027027
scalar RSUExampleScenario.node[74].appl 	NumberofFN 	0.67567567567568
scalar RSUExampleScenario.node[74].veinsmobility 	startTime 	178.4
scalar RSUExampleScenario.node[74].veinsmobility 	totalTime 	271.6
scalar RSUExampleScenario.node[74].veinsmobility 	stopTime 	450
scalar RSUExampleScenario.node[74].veinsmobility 	minSpeed 	0
scalar RSUExampleScenario.node[74].veinsmobility 	maxSpeed 	13.999775763548
scalar RSUExampleScenario.node[74].veinsmobility 	totalDistance 	690.91524614272
scalar RSUExampleScenario.node[74].veinsmobility 	totalCO2Emission 	384.41460527334
scalar RSUExampleScenario.node[75].appl 	meanClusterNodes 	4
scalar RSUExampleScenario.node[75].appl 	meanClusterHeadUtility 	15.865174664006
scalar RSUExampleScenario.node[75].appl 	NumberofCH 	0.054054054054054
scalar RSUExampleScenario.node[75].appl 	NumberofON 	0.2972972972973
scalar RSUExampleScenario.node[75].appl 	NumberofFN 	0.64864864864865
scalar RSUExampleScenario.node[75].veinsmobility 	startTime 	180.8
scalar RSUExampleScenario.node[75].veinsmobility 	totalTime 	269.2
scalar RSUExampleScenario.node[75].veinsmobility 	stopTime 	450
scalar RSUExampleScenario.node[75].veinsmobility 	minSpeed 	0
scalar RSUExampleScenario.node[75].veinsmobility 	maxSpeed 	13.999353796255
scalar RSUExampleScenario.node[75].veinsmobility 	totalDistance 	657.41510768302
scalar RSUExampleScenario.node[75].veinsmobility 	totalCO2Emission 	379.29290157279
scalar RSUExampleScenario.node[76].appl 	meanClusterNodes 	12
scalar RSUExampleScenario.node[76].appl 	meanClusterHeadUtility 	34.908833488526
scalar RSUExampleScenario.node[76].appl 	NumberofCH 	0.027027027027027
scalar RSUExampleScenario.node[76].appl 	NumberofON 	0.24324324324324
scalar RSUExampleScenario.node[76].appl 	NumberofFN 	0.72972972972973
scalar RSUExampleScenario.node[76].veinsmobility 	startTime 	183.2
scalar RSUExampleScenario.node[76].veinsmobility 	totalTime 	266.8
scalar RSUExampleScenario.node[76].veinsmobility 	stopTime 	450
scalar RSUExampleScenario.node[76].veinsmobility 	minSpeed 	0
scalar RSUExampleScenario.node[76].veinsmobility 	maxSpeed 	13.998623355017
scalar RSUExampleScenario.node[76].veinsmobility 	totalDistance 	624.09475135944
scalar RSUExampleScenario.node[76].veinsmobility 	totalCO2Emission 	374.34297485424
scalar RSUExampleScenario.node[77].appl 	meanClusterNodes 	3.5
scalar RSUExampleScenario.node[77].appl 	meanClusterHeadUtility 	16.381865836691
scalar RSUExampleScenario.node[77].appl 	NumberofCH 	0.054054054054054
scalar RSUExampleScenario.node[77].appl 	NumberofON 	0.45945945945946
scalar RSUExampleScenario.node[77].appl 	NumberofFN 	0.48648648648649
scalar RSUExampleScenario.node[77].veinsmobility 	startTime 	185.6
scalar RSUExampleScenario.node[77].veinsmobility 	totalTime 	264.4
scalar RSUExampleScenario.node[77].veinsmobility 	stopTime 	450
scalar RSUExampleScenario.node[77].veinsmobility 	minSpeed 	0
scalar RSUExampleScenario.node[77].veinsmobility 	maxSpeed 	13.998993999795
scalar RSUExampleScenario.node[77].veinsmobility 	totalDistance 	591.49363333561
scalar RSUExampleScenario.node[77].veinsmobility 	totalCO2Emission 	368.63500098419
scalar RSUExampleScenario.node[78].appl 	meanClusterNodes 	5
scalar RSUExampleScenario.node[78].appl 	meanClusterHeadUtility 	17.305923148269
scalar RSUExampleScenario.node[78].appl 	NumberofCH 	0.054054054054054
scalar RSUExampleScenario.node[78].appl 	NumberofON 	0.32432432432432
scalar RSUExampleScenario.node[78].appl 	NumberofFN 	0.62162162162162
scalar RSUExampleScenario.node[78].veinsmobility 	startTime 	188
scalar RSUExampleScenario.node[78].veinsmobility 	totalTime 	262
scalar RSUExampleScenario.node[78].veinsmobility 	stopTime 	450
scalar RSUExampleScenario.node[78].veinsmobility 	minSpeed 	0
scalar RSUExampleScenario.node[78].veinsmobility 	maxSpeed 	13.999996377225
scalar RSUExampleScenario.node[78].veinsmobility 	totalDistance 	558.01473127674
scalar RSUExampleScenario.node[78].veinsmobility 	totalCO2Emission 	363.15922533571
scalar RSUExampleScenario.node[79].appl 	meanClusterNodes 	0
scalar RSUExampleScenario.node[79].appl 	meanClusterHeadUtility 	0
scalar RSUExampleScenario.node[79].appl 	NumberofCH 	0
scalar RSUExampleScenario.node[79].appl 	NumberofON 	0.48648648648649
scalar RSUExampleScenario.node[79].appl 	NumberofFN 	0.51351351351351
scalar RSUExampleScenario.node[79].veinsmobility 	startTime 	190.4
scalar RSUExampleScenario.node[79].veinsmobility 	totalTime 	259.6
scalar RSUExampleScenario.node[79].veinsmobility 	stopTime 	450
scalar RSUExampleScenario.node[79].veinsmobility 	minSpeed 	0
scalar RSUExampleScenario.node[79].veinsmobility 	maxSpeed 	13.9983538906
scalar RSUExampleScenario.node[79].veinsmobility 	totalDistance 	522.10050112198
scalar RSUExampleScenario.node[79].veinsmobility 	totalCO2Emission 	357.7925685311
scalar RSUExampleScenario.node[8].appl 	meanClusterNodes 	0
scalar RSUExampleScenario.node[8].appl 	meanClusterHeadUtility 	0
scalar RSUExampleScenario.node[8].appl 	NumberofCH 	0
scalar RSUExampleScenario.node[8].appl 	NumberofON 	0.21621621621622
scalar RSUExampleScenario.node[8].appl 	NumberofFN 	0.78378378378378
scalar RSUExampleScenario.node[8].veinsmobility 	startTime 	19.3
scalar RSUExampleScenario.node[8].veinsmobility 	totalTime 	430.7
scalar RSUExampleScenario.node[8].veinsmobility 	stopTime 	450
scalar RSUExampleScenario.node[8].veinsmobility 	minSpeed 	0
scalar RSUExampleScenario.node[8].veinsmobility 	maxSpeed 	13.999895373145
scalar RSUExampleScenario.node[8].veinsmobility 	totalDistance 	2864.440623097
scalar RSUExampleScenario.node[8].veinsmobility 	totalCO2Emission 	771.52548575279
scalar RSUExampleScenario.node[80].appl 	meanClusterNodes 	0
scalar RSUExampleScenario.node[80].appl 	meanClusterHeadUtility 	0
scalar RSUExampleScenario.node[80].appl 	NumberofCH 	0
scalar RSUExampleScenario.node[80].appl 	NumberofON 	0.40540540540541
scalar RSUExampleScenario.node[80].appl 	NumberofFN 	0.59459459459459
scalar RSUExampleScenario.node[80].veinsmobility 	startTime 	192.9
scalar RSUExampleScenario.node[80].veinsmobility 	totalTime 	257.1
scalar RSUExampleScenario.node[80].veinsmobility 	stopTime 	450
scalar RSUExampleScenario.node[80].veinsmobility 	minSpeed 	0
scalar RSUExampleScenario.node[80].veinsmobility 	maxSpeed 	13.999525690586
scalar RSUExampleScenario.node[80].veinsmobility 	totalDistance 	489.97749058399
scalar RSUExampleScenario.node[80].veinsmobility 	totalCO2Emission 	350.00501569021
scalar RSUExampleScenario.node[81].appl 	meanClusterNodes 	9
scalar RSUExampleScenario.node[81].appl 	meanClusterHeadUtility 	17.634302158216
scalar RSUExampleScenario.node[81].appl 	NumberofCH 	0.054054054054054
scalar RSUExampleScenario.node[81].appl 	NumberofON 	0.35135135135135
scalar RSUExampleScenario.node[81].appl 	NumberofFN 	0.59459459459459
scalar RSUExampleScenario.node[81].veinsmobility 	startTime 	195.3
scalar RSUExampleScenario.node[81].veinsmobility 	totalTime 	254.7
scalar RSUExampleScenario.node[81].veinsmobility 	stopTime 	450
scalar RSUExampleScenario.node[81].veinsmobility 	minSpeed 	0
scalar RSUExampleScenario.node[81].veinsmobility 	maxSpeed 	13.999751407264
scalar RSUExampleScenario.node[81].veinsmobility 	totalDistance 	455.49061210671
scalar RSUExampleScenario.node[81].veinsmobility 	totalCO2Emission 	345.35370521324
scalar RSUExampleScenario.node[82].appl 	meanClusterNodes 	0
scalar RSUExampleScenario.node[82].appl 	meanClusterHeadUtility 	0
scalar RSUExampleScenario.node[82].appl 	NumberofCH 	0
scalar RSUExampleScenario.node[82].appl 	NumberofON 	0.43243243243243
scalar RSUExampleScenario.node[82].appl 	NumberofFN 	0.56756756756757
scalar RSUExampleScenario.node[82].veinsmobility 	startTime 	197.7
scalar RSUExampleScenario.node[82].veinsmobility 	totalTime 	252.3
scalar RSUExampleScenario.node[82].veinsmobility 	stopTime 	450
scalar RSUExampleScenario.node[82].veinsmobility 	minSpeed 	0
scalar RSUExampleScenario.node[82].veinsmobility 	maxSpeed 	13.996900496664
scalar RSUExampleScenario.node[82].veinsmobility 	totalDistance 	420.07523681686
scalar RSUExampleScenario.node[82].veinsmobility 	totalCO2Emission 	339.76672640157
scalar RSUExampleScenario.node[83].appl 	meanClusterNodes 	0
scalar RSUExampleScenario.node[83].appl 	meanClusterHeadUtility 	0
scalar RSUExampleScenario.node[83].appl 	NumberofCH 	0
scalar RSUExampleScenario.node[83].appl 	NumberofON 	0.32432432432432
scalar RSUExampleScenario.node[83].appl 	NumberofFN 	0.67567567567568
scalar RSUExampleScenario.node[83].veinsmobility 	startTime 	200.1
scalar RSUExampleScenario.node[83].veinsmobility 	totalTime 	249.9
scalar RSUExampleScenario.node[83].veinsmobility 	stopTime 	450
scalar RSUExampleScenario.node[83].veinsmobility 	minSpeed 	0
scalar RSUExampleScenario.node[83].veinsmobility 	maxSpeed 	13.995485438553
scalar RSUExampleScenario.node[83].veinsmobility 	totalDistance 	387.00116881352
scalar RSUExampleScenario.node[83].veinsmobility 	totalCO2Emission 	333.73328058749
scalar RSUExampleScenario.node[84].appl 	meanClusterNodes 	7.5
scalar RSUExampleScenario.node[84].appl 	meanClusterHeadUtility 	17.547393727091
scalar RSUExampleScenario.node[84].appl 	NumberofCH 	0.054054054054054
scalar RSUExampleScenario.node[84].appl 	NumberofON 	0.54054054054054
scalar RSUExampleScenario.node[84].appl 	NumberofFN 	0.40540540540541
scalar RSUExampleScenario.node[84].veinsmobility 	startTime 	202.5
scalar RSUExampleScenario.node[84].veinsmobility 	totalTime 	247.5
scalar RSUExampleScenario.node[84].veinsmobility 	stopTime 	450
scalar RSUExampleScenario.node[84].veinsmobility 	minSpeed 	0
scalar RSUExampleScenario.node[84].veinsmobility 	maxSpeed 	13.99870190776
scalar RSUExampleScenario.node[84].veinsmobility 	totalDistance 	353.49054199105
scalar RSUExampleScenario.node[84].veinsmobility 	totalCO2Emission 	326.90595699446
scalar RSUExampleScenario.node[85].appl 	meanClusterNodes 	5
scalar RSUExampleScenario.node[85].appl 	meanClusterHeadUtility 	17.214734736712
scalar RSUExampleScenario.node[85].appl 	NumberofCH 	0.054054054054054
scalar RSUExampleScenario.node[85].appl 	NumberofON 	0.51351351351351
scalar RSUExampleScenario.node[85].appl 	NumberofFN 	0.43243243243243
scalar RSUExampleScenario.node[85].veinsmobility 	startTime 	204.9
scalar RSUExampleScenario.node[85].veinsmobility 	totalTime 	245.1
scalar RSUExampleScenario.node[85].veinsmobility 	stopTime 	450
scalar RSUExampleScenario.node[85].veinsmobility 	minSpeed 	0
scalar RSUExampleScenario.node[85].veinsmobility 	maxSpeed 	13.999978477072
scalar RSUExampleScenario.node[85].veinsmobility 	totalDistance 	321.60213195364
scalar RSUExampleScenario.node[85].veinsmobility 	totalCO2Emission 	322.38032621365
scalar RSUExampleScenario.node[86].appl 	meanClusterNodes 	4.5
scalar RSUExampleScenario.node[86].appl 	meanClusterHeadUtility 	17.912461661856
scalar RSUExampleScenario.node[86].appl 	NumberofCH 	0.054054054054054
scalar RSUExampleScenario.node[86].appl 	NumberofON 	0.35135135135135
scalar RSUExampleScenario.node[86].appl 	NumberofFN 	0.59459459459459
scalar RSUExampleScenario.node[86].veinsmobility 	startTime 	207.3
scalar RSUExampleScenario.node[86].veinsmobility 	totalTime 	242.7
scalar RSUExampleScenario.node[86].veinsmobility 	stopTime 	450
scalar RSUExampleScenario.node[86].veinsmobility 	minSpeed 	0
scalar RSUExampleScenario.node[86].veinsmobility 	maxSpeed 	13.71043077563
scalar RSUExampleScenario.node[86].veinsmobility 	totalDistance 	286.84803047788
scalar RSUExampleScenario.node[86].veinsmobility 	totalCO2Emission 	315.4962766236
scalar RSUExampleScenario.node[87].appl 	meanClusterNodes 	0
scalar RSUExampleScenario.node[87].appl 	meanClusterHeadUtility 	0
scalar RSUExampleScenario.node[87].appl 	NumberofCH 	0
scalar RSUExampleScenario.node[87].appl 	NumberofON 	0.21621621621622
scalar RSUExampleScenario.node[87].appl 	NumberofFN 	0.78378378378378
scalar RSUExampleScenario.node[87].veinsmobility 	startTime 	209.7
scalar RSUExampleScenario.node[87].veinsmobility 	totalTime 	240.3
scalar RSUExampleScenario.node[87].veinsmobility 	stopTime 	450
scalar RSUExampleScenario.node[87].veinsmobility 	minSpeed 	0
scalar RSUExampleScenario.node[87].veinsmobility 	maxSpeed 	13.820916564741
scalar RSUExampleScenario.node[87].veinsmobility 	totalDistance 	247.85467440491
scalar RSUExampleScenario.node[87].veinsmobility 	totalCO2Emission 	298.43963252758
scalar RSUExampleScenario.node[88].appl 	meanClusterNodes 	0