version 2
run statistic3-95-20150318-14:14:54-2744
attr c 18
attr configname statistic3
attr datetime 20150318-14:14:54
attr experiment statistic3
attr inifile omnetpp.ini
attr iterationvars "$p=1/10, $c=18"
attr iterationvars2 "$p=1/10, $c=18, $repetition=5"
attr measurement "$p=1/10, $c=18"
attr network RSUExampleScenario
attr p 1/10
attr processid 2744
attr repetition 5
attr replication #5
attr resultdir results
attr runnumber 95
attr seedset 95

scalar . 	c 	18
scalar RSUExampleScenario.rsu[0].appl 	NumberofCH 	10
scalar RSUExampleScenario.rsu[0].appl 	NumberofON 	83
scalar RSUExampleScenario.rsu[0].appl 	NumberofFN 	7
scalar RSUExampleScenario.rsu[0].appl 	meanClusterNodes 	8.3
scalar RSUExampleScenario.rsu[0].appl 	varClusterNodes 	6.1
scalar RSUExampleScenario.rsu[0].appl 	sumCHutility 	334.98580590722
scalar RSUExampleScenario.rsu[0].appl 	meanCHutility 	33.498580590722
scalar RSUExampleScenario.rsu[0].appl 	varCHutility 	11.342583049087
scalar RSUExampleScenario.rsu[0].appl 	sumDiffCHutility 	4.9156811763889
scalar RSUExampleScenario.rsu[0].appl 	meanDiffCHutility 	0.49156811763889
scalar RSUExampleScenario.rsu[0].appl 	varDiffCHutility 	11.168189330878
scalar RSUExampleScenario.rsu[0].appl 	expectedCHutility 	339.90148708361
scalar RSUExampleScenario.rsu[0].appl 	meanExpectedCHutility 	33.990148708361
scalar RSUExampleScenario.rsu[0].appl 	varExpectedCHutility 	0.56849143677572
