version 2
run statisticRVV-24-20150325-00:33:07-4388
attr c 16
attr configname statisticRVV
attr datetime 20150325-00:33:07
attr experiment statisticRVV
attr inifile omnetpp.ini
attr iterationvars "$sc=\"erlangen-low.launchd.xml\", $p=1/15, $c=16"
attr iterationvars2 "$sc=\"erlangen-low.launchd.xml\", $p=1/15, $c=16, $repetition=4"
attr measurement "$sc=\"erlangen-low.launchd.xml\", $p=1/15, $c=16"
attr network RSUExampleScenario
attr p 1/15
attr processid 4388
attr repetition 4
attr replication #4
attr resultdir results
attr runnumber 24
attr sc "\"erlangen-low.launchd.xml\""
attr seedset 24

scalar . 	c 	16
scalar RSUExampleScenario.node[0].veinsmobility 	startTime 	0.1
scalar RSUExampleScenario.node[0].veinsmobility 	totalTime 	226.9
scalar RSUExampleScenario.node[0].veinsmobility 	stopTime 	227.1
scalar RSUExampleScenario.node[0].veinsmobility 	minSpeed 	0.2475197750791
scalar RSUExampleScenario.node[0].veinsmobility 	maxSpeed 	18.999895617983
scalar RSUExampleScenario.node[0].veinsmobility 	totalDistance 	3409.3195725025
scalar RSUExampleScenario.node[0].veinsmobility 	totalCO2Emission 	707.60089068327
scalar RSUExampleScenario.node[1].veinsmobility 	startTime 	6.1
scalar RSUExampleScenario.node[1].veinsmobility 	totalTime 	227.1
scalar RSUExampleScenario.node[1].veinsmobility 	stopTime 	233.3
scalar RSUExampleScenario.node[1].veinsmobility 	minSpeed 	0.25755261663464
scalar RSUExampleScenario.node[1].veinsmobility 	maxSpeed 	18.999723765785
scalar RSUExampleScenario.node[1].veinsmobility 	totalDistance 	3409.7011541235
scalar RSUExampleScenario.node[1].veinsmobility 	totalCO2Emission 	703.75174993683
scalar RSUExampleScenario.node[2].veinsmobility 	startTime 	12.1
scalar RSUExampleScenario.node[2].veinsmobility 	totalTime 	227
scalar RSUExampleScenario.node[2].veinsmobility 	stopTime 	239.2
scalar RSUExampleScenario.node[2].veinsmobility 	minSpeed 	0.25426703669853
scalar RSUExampleScenario.node[2].veinsmobility 	maxSpeed 	18.999925322589
scalar RSUExampleScenario.node[2].veinsmobility 	totalDistance 	3409.4136362043
scalar RSUExampleScenario.node[2].veinsmobility 	totalCO2Emission 	709.17162157399
scalar RSUExampleScenario.node[3].veinsmobility 	startTime 	18.1
scalar RSUExampleScenario.node[3].veinsmobility 	totalTime 	226.7
scalar RSUExampleScenario.node[3].veinsmobility 	stopTime 	244.9
scalar RSUExampleScenario.node[3].veinsmobility 	minSpeed 	0.24931638806616
scalar RSUExampleScenario.node[3].veinsmobility 	maxSpeed 	18.999742801199
scalar RSUExampleScenario.node[3].veinsmobility 	totalDistance 	3409.9483928921
scalar RSUExampleScenario.node[3].veinsmobility 	totalCO2Emission 	705.09965511159
scalar RSUExampleScenario.node[4].veinsmobility 	startTime 	24.1
scalar RSUExampleScenario.node[4].veinsmobility 	totalTime 	226.9
scalar RSUExampleScenario.node[4].veinsmobility 	stopTime 	251.1
scalar RSUExampleScenario.node[4].veinsmobility 	minSpeed 	0.25798601374705
scalar RSUExampleScenario.node[4].veinsmobility 	maxSpeed 	18.999895881617
scalar RSUExampleScenario.node[4].veinsmobility 	totalDistance 	3409.0968185294
scalar RSUExampleScenario.node[4].veinsmobility 	totalCO2Emission 	710.35633662938
scalar RSUExampleScenario.node[5].veinsmobility 	startTime 	30.1
scalar RSUExampleScenario.node[5].veinsmobility 	totalTime 	226.7
scalar RSUExampleScenario.node[5].veinsmobility 	stopTime 	256.9
scalar RSUExampleScenario.node[5].veinsmobility 	minSpeed 	0.24906507090922
scalar RSUExampleScenario.node[5].veinsmobility 	maxSpeed 	18.999672240354
scalar RSUExampleScenario.node[5].veinsmobility 	totalDistance 	3409.1552103925
scalar RSUExampleScenario.node[5].veinsmobility 	totalCO2Emission 	704.09156713101
scalar RSUExampleScenario.node[6].veinsmobility 	startTime 	36.1
scalar RSUExampleScenario.node[6].veinsmobility 	totalTime 	226.9
scalar RSUExampleScenario.node[6].veinsmobility 	stopTime 	263.1
scalar RSUExampleScenario.node[6].veinsmobility 	minSpeed 	0.25533594251494
scalar RSUExampleScenario.node[6].veinsmobility 	maxSpeed 	18.999976538317
scalar RSUExampleScenario.node[6].veinsmobility 	totalDistance 	3409.74489925
scalar RSUExampleScenario.node[6].veinsmobility 	totalCO2Emission 	711.04855558599
scalar RSUExampleScenario.node[7].veinsmobility 	startTime 	42.1
scalar RSUExampleScenario.node[7].veinsmobility 	totalTime 	227.1
scalar RSUExampleScenario.node[7].veinsmobility 	stopTime 	269.3
scalar RSUExampleScenario.node[7].veinsmobility 	minSpeed 	0.25675628719595
scalar RSUExampleScenario.node[7].veinsmobility 	maxSpeed 	18.999783401038
scalar RSUExampleScenario.node[7].veinsmobility 	totalDistance 	3409.5936623617
scalar RSUExampleScenario.node[7].veinsmobility 	totalCO2Emission 	705.45254812755
scalar RSUExampleScenario.node[8].veinsmobility 	startTime 	48.1
scalar RSUExampleScenario.node[8].veinsmobility 	totalTime 	226.9
scalar RSUExampleScenario.node[8].veinsmobility 	stopTime 	275.1
scalar RSUExampleScenario.node[8].veinsmobility 	minSpeed 	0.25171316908044
scalar RSUExampleScenario.node[8].veinsmobility 	maxSpeed 	18.999538117924
scalar RSUExampleScenario.node[8].veinsmobility 	totalDistance 	3409.1663371796
scalar RSUExampleScenario.node[8].veinsmobility 	totalCO2Emission 	707.90179785961
scalar RSUExampleScenario.node[9].veinsmobility 	startTime 	54.1
scalar RSUExampleScenario.node[9].veinsmobility 	totalTime 	226.8
scalar RSUExampleScenario.node[9].veinsmobility 	stopTime 	281
scalar RSUExampleScenario.node[9].veinsmobility 	minSpeed 	0.25990254760464
scalar RSUExampleScenario.node[9].veinsmobility 	maxSpeed 	18.999949778968
scalar RSUExampleScenario.node[9].veinsmobility 	totalDistance 	3409.3236834231
scalar RSUExampleScenario.node[9].veinsmobility 	totalCO2Emission 	707.01472961348
scalar RSUExampleScenario.node[10].veinsmobility 	startTime 	60.1
scalar RSUExampleScenario.node[10].veinsmobility 	totalTime 	226.8
scalar RSUExampleScenario.node[10].veinsmobility 	stopTime 	287
scalar RSUExampleScenario.node[10].veinsmobility 	minSpeed 	0.24726289526606
scalar RSUExampleScenario.node[10].veinsmobility 	maxSpeed 	18.999730298251
scalar RSUExampleScenario.node[10].veinsmobility 	totalDistance 	3409.3926761422
scalar RSUExampleScenario.node[10].veinsmobility 	totalCO2Emission 	702.75705897409
scalar RSUExampleScenario.node[11].veinsmobility 	startTime 	66.1
scalar RSUExampleScenario.node[11].veinsmobility 	totalTime 	226.7
scalar RSUExampleScenario.node[11].veinsmobility 	stopTime 	292.9
scalar RSUExampleScenario.node[11].veinsmobility 	minSpeed 	0.25521872677584
scalar RSUExampleScenario.node[11].veinsmobility 	maxSpeed 	18.999990192144
scalar RSUExampleScenario.node[11].veinsmobility 	totalDistance 	3409.1313533762
scalar RSUExampleScenario.node[11].veinsmobility 	totalCO2Emission 	708.30462221061
scalar RSUExampleScenario.node[12].veinsmobility 	startTime 	72.1
scalar RSUExampleScenario.node[12].veinsmobility 	totalTime 	226.8
scalar RSUExampleScenario.node[12].veinsmobility 	stopTime 	299
scalar RSUExampleScenario.node[12].veinsmobility 	minSpeed 	0.24820434074779
scalar RSUExampleScenario.node[12].veinsmobility 	maxSpeed 	18.999786064802
scalar RSUExampleScenario.node[12].veinsmobility 	totalDistance 	3409.7307515485
scalar RSUExampleScenario.node[12].veinsmobility 	totalCO2Emission 	706.35249146778
scalar RSUExampleScenario.node[13].veinsmobility 	startTime 	78.1
scalar RSUExampleScenario.node[13].veinsmobility 	totalTime 	226.8
scalar RSUExampleScenario.node[13].veinsmobility 	stopTime 	305
scalar RSUExampleScenario.node[13].veinsmobility 	minSpeed 	0.250990207745
scalar RSUExampleScenario.node[13].veinsmobility 	maxSpeed 	18.999959605015
scalar RSUExampleScenario.node[13].veinsmobility 	totalDistance 	3409.9728619976
scalar RSUExampleScenario.node[13].veinsmobility 	totalCO2Emission 	706.39481376475
scalar RSUExampleScenario.node[14].veinsmobility 	startTime 	84.1
scalar RSUExampleScenario.node[14].veinsmobility 	totalTime 	226.9
scalar RSUExampleScenario.node[14].veinsmobility 	stopTime 	311.1
scalar RSUExampleScenario.node[14].veinsmobility 	minSpeed 	0.24809456393472
scalar RSUExampleScenario.node[14].veinsmobility 	maxSpeed 	18.999990879046
scalar RSUExampleScenario.node[14].veinsmobility 	totalDistance 	3409.7170904617
scalar RSUExampleScenario.node[14].veinsmobility 	totalCO2Emission 	709.42881782982
scalar RSUExampleScenario.node[15].veinsmobility 	startTime 	90.1
scalar RSUExampleScenario.node[15].veinsmobility 	totalTime 	226.8
scalar RSUExampleScenario.node[15].veinsmobility 	stopTime 	317
scalar RSUExampleScenario.node[15].veinsmobility 	minSpeed 	0.24898560021748
scalar RSUExampleScenario.node[15].veinsmobility 	maxSpeed 	18.999877698307
scalar RSUExampleScenario.node[15].veinsmobility 	totalDistance 	3409.3083411849
scalar RSUExampleScenario.node[15].veinsmobility 	totalCO2Emission 	708.74009488508
scalar RSUExampleScenario.node[16].veinsmobility 	startTime 	96.1
scalar RSUExampleScenario.node[16].veinsmobility 	totalTime 	226.9
scalar RSUExampleScenario.node[16].veinsmobility 	stopTime 	323.1
scalar RSUExampleScenario.node[16].veinsmobility 	minSpeed 	0.2504530977679
scalar RSUExampleScenario.node[16].veinsmobility 	maxSpeed 	18.999589146203
scalar RSUExampleScenario.node[16].veinsmobility 	totalDistance 	3409.0940581586
scalar RSUExampleScenario.node[16].veinsmobility 	totalCO2Emission 	708.37646115333
scalar RSUExampleScenario.node[17].veinsmobility 	startTime 	102.1
scalar RSUExampleScenario.node[17].veinsmobility 	totalTime 	226.8
scalar RSUExampleScenario.node[17].veinsmobility 	stopTime 	329
scalar RSUExampleScenario.node[17].veinsmobility 	minSpeed 	0.25464758600527
scalar RSUExampleScenario.node[17].veinsmobility 	maxSpeed 	18.999801088376
scalar RSUExampleScenario.node[17].veinsmobility 	totalDistance 	3409.3728273829
scalar RSUExampleScenario.node[17].veinsmobility 	totalCO2Emission 	712.42775222601
scalar RSUExampleScenario.node[18].veinsmobility 	startTime 	108.1
scalar RSUExampleScenario.node[18].veinsmobility 	totalTime 	226.8
scalar RSUExampleScenario.node[18].veinsmobility 	stopTime 	335
scalar RSUExampleScenario.node[18].veinsmobility 	minSpeed 	0.24900248654699
scalar RSUExampleScenario.node[18].veinsmobility 	maxSpeed 	18.999703594565
scalar RSUExampleScenario.node[18].veinsmobility 	totalDistance 	3409.4865038753
scalar RSUExampleScenario.node[18].veinsmobility 	totalCO2Emission 	705.46123466281
scalar RSUExampleScenario.node[19].veinsmobility 	startTime 	114.1
scalar RSUExampleScenario.node[19].veinsmobility 	totalTime 	226.9
scalar RSUExampleScenario.node[19].veinsmobility 	stopTime 	341.1
scalar RSUExampleScenario.node[19].veinsmobility 	minSpeed 	0.24878335570102
scalar RSUExampleScenario.node[19].veinsmobility 	maxSpeed 	18.999989174565
scalar RSUExampleScenario.node[19].veinsmobility 	totalDistance 	3409.7263604816
scalar RSUExampleScenario.node[19].veinsmobility 	totalCO2Emission 	703.83006179966
scalar RSUExampleScenario.node[20].veinsmobility 	startTime 	120.1
scalar RSUExampleScenario.node[20].veinsmobility 	totalTime 	226.9
scalar RSUExampleScenario.node[20].veinsmobility 	stopTime 	347.1
scalar RSUExampleScenario.node[20].veinsmobility 	minSpeed 	0.25841045001079
scalar RSUExampleScenario.node[20].veinsmobility 	maxSpeed 	18.999225893836
scalar RSUExampleScenario.node[20].veinsmobility 	totalDistance 	3409.5281194593
scalar RSUExampleScenario.node[20].veinsmobility 	totalCO2Emission 	703.03781207253
scalar RSUExampleScenario.node[21].veinsmobility 	startTime 	126.1
scalar RSUExampleScenario.node[21].veinsmobility 	totalTime 	226.8
scalar RSUExampleScenario.node[21].veinsmobility 	stopTime 	353
scalar RSUExampleScenario.node[21].veinsmobility 	minSpeed 	0.25013462821068
scalar RSUExampleScenario.node[21].veinsmobility 	maxSpeed 	18.999704664478
scalar RSUExampleScenario.node[21].veinsmobility 	totalDistance 	3409.3415099578
scalar RSUExampleScenario.node[21].veinsmobility 	totalCO2Emission 	708.25720122346
scalar RSUExampleScenario.node[22].veinsmobility 	startTime 	132.1
scalar RSUExampleScenario.node[22].veinsmobility 	totalTime 	226.7
scalar RSUExampleScenario.node[22].veinsmobility 	stopTime 	358.9
scalar RSUExampleScenario.node[22].veinsmobility 	minSpeed 	0.255940847527
scalar RSUExampleScenario.node[22].veinsmobility 	maxSpeed 	18.99957649352
scalar RSUExampleScenario.node[22].veinsmobility 	totalDistance 	3409.5472639361
scalar RSUExampleScenario.node[22].veinsmobility 	totalCO2Emission 	702.32058595409
scalar RSUExampleScenario.node[23].veinsmobility 	startTime 	138.1
scalar RSUExampleScenario.node[23].veinsmobility 	totalTime 	226.8
scalar RSUExampleScenario.node[23].veinsmobility 	stopTime 	365
scalar RSUExampleScenario.node[23].veinsmobility 	minSpeed 	0.2536112344556
scalar RSUExampleScenario.node[23].veinsmobility 	maxSpeed 	18.99986701489
scalar RSUExampleScenario.node[23].veinsmobility 	totalDistance 	3409.6895852398
scalar RSUExampleScenario.node[23].veinsmobility 	totalCO2Emission 	704.18471162861
scalar RSUExampleScenario.node[24].veinsmobility 	startTime 	144.1
scalar RSUExampleScenario.node[24].veinsmobility 	totalTime 	227
scalar RSUExampleScenario.node[24].veinsmobility 	stopTime 	371.2
scalar RSUExampleScenario.node[24].veinsmobility 	minSpeed 	0.2595612151199
scalar RSUExampleScenario.node[24].veinsmobility 	maxSpeed 	18.999588550772
scalar RSUExampleScenario.node[24].veinsmobility 	totalDistance 	3409.1007716182
scalar RSUExampleScenario.node[24].veinsmobility 	totalCO2Emission 	705.46958528756
scalar RSUExampleScenario.node[25].veinsmobility 	startTime 	150.1
scalar RSUExampleScenario.node[25].veinsmobility 	totalTime 	226.9
scalar RSUExampleScenario.node[25].veinsmobility 	stopTime 	377.1
scalar RSUExampleScenario.node[25].veinsmobility 	minSpeed 	0.2484645427959
scalar RSUExampleScenario.node[25].veinsmobility 	maxSpeed 	18.999907628077
scalar RSUExampleScenario.node[25].veinsmobility 	totalDistance 	3409.4158291159
scalar RSUExampleScenario.node[25].veinsmobility 	totalCO2Emission 	711.11449759789
scalar RSUExampleScenario.node[26].veinsmobility 	startTime 	156.1
scalar RSUExampleScenario.node[26].veinsmobility 	totalTime 	226.7
scalar RSUExampleScenario.node[26].veinsmobility 	stopTime 	382.9
scalar RSUExampleScenario.node[26].veinsmobility 	minSpeed 	0.25906048664777
scalar RSUExampleScenario.node[26].veinsmobility 	maxSpeed 	18.999938091501
scalar RSUExampleScenario.node[26].veinsmobility 	totalDistance 	3409.3503664453
scalar RSUExampleScenario.node[26].veinsmobility 	totalCO2Emission 	710.15042916103
scalar RSUExampleScenario.node[27].veinsmobility 	startTime 	162.1
scalar RSUExampleScenario.node[27].veinsmobility 	totalTime 	226.8
scalar RSUExampleScenario.node[27].veinsmobility 	stopTime 	389
scalar RSUExampleScenario.node[27].veinsmobility 	minSpeed 	0.25397591595654
scalar RSUExampleScenario.node[27].veinsmobility 	maxSpeed 	18.999980088812
scalar RSUExampleScenario.node[27].veinsmobility 	totalDistance 	3409.5606837345
scalar RSUExampleScenario.node[27].veinsmobility 	totalCO2Emission 	710.43826969295
scalar RSUExampleScenario.node[28].veinsmobility 	startTime 	168.1
scalar RSUExampleScenario.node[28].veinsmobility 	totalTime 	226.9
scalar RSUExampleScenario.node[28].veinsmobility 	stopTime 	395.1
scalar RSUExampleScenario.node[28].veinsmobility 	minSpeed 	0.25155757217901
scalar RSUExampleScenario.node[28].veinsmobility 	maxSpeed 	18.999386523301
scalar RSUExampleScenario.node[28].veinsmobility 	totalDistance 	3409.3484698482
scalar RSUExampleScenario.node[28].veinsmobility 	totalCO2Emission 	709.24860729771
scalar RSUExampleScenario.node[29].veinsmobility 	startTime 	174.1
scalar RSUExampleScenario.node[29].veinsmobility 	totalTime 	227.1
scalar RSUExampleScenario.node[29].veinsmobility 	stopTime 	401.3
scalar RSUExampleScenario.node[29].veinsmobility 	minSpeed 	0.25989633095125
scalar RSUExampleScenario.node[29].veinsmobility 	maxSpeed 	18.999855611608
scalar RSUExampleScenario.node[29].veinsmobility 	totalDistance 	3409.3977126123
scalar RSUExampleScenario.node[29].veinsmobility 	totalCO2Emission 	710.08980114491
scalar RSUExampleScenario.node[30].veinsmobility 	startTime 	180.1
scalar RSUExampleScenario.node[30].veinsmobility 	totalTime 	227.1
scalar RSUExampleScenario.node[30].veinsmobility 	stopTime 	407.3
scalar RSUExampleScenario.node[30].veinsmobility 	minSpeed 	0.25618211926986
scalar RSUExampleScenario.node[30].veinsmobility 	maxSpeed 	18.999899629096
scalar RSUExampleScenario.node[30].veinsmobility 	totalDistance 	3409.5013880626
scalar RSUExampleScenario.node[30].veinsmobility 	totalCO2Emission 	708.27077857035
scalar RSUExampleScenario.node[31].veinsmobility 	startTime 	186.1
scalar RSUExampleScenario.node[31].veinsmobility 	totalTime 	226.7
scalar RSUExampleScenario.node[31].veinsmobility 	stopTime 	412.9
scalar RSUExampleScenario.node[31].veinsmobility 	minSpeed 	0.24806156796729
scalar RSUExampleScenario.node[31].veinsmobility 	maxSpeed 	18.999461321421
scalar RSUExampleScenario.node[31].veinsmobility 	totalDistance 	3409.5608298281
scalar RSUExampleScenario.node[31].veinsmobility 	totalCO2Emission 	708.55670063867
scalar RSUExampleScenario.node[32].veinsmobility 	startTime 	192.1
scalar RSUExampleScenario.node[32].veinsmobility 	totalTime 	226.8
scalar RSUExampleScenario.node[32].veinsmobility 	stopTime 	419
scalar RSUExampleScenario.node[32].veinsmobility 	minSpeed 	0.25661890198034
scalar RSUExampleScenario.node[32].veinsmobility 	maxSpeed 	18.999967842991
scalar RSUExampleScenario.node[32].veinsmobility 	totalDistance 	3409.7050191181
scalar RSUExampleScenario.node[32].veinsmobility 	totalCO2Emission 	704.4194283038
scalar RSUExampleScenario.node[33].veinsmobility 	startTime 	198.1
scalar RSUExampleScenario.node[33].veinsmobility 	totalTime 	226.6
scalar RSUExampleScenario.node[33].veinsmobility 	stopTime 	424.8
scalar RSUExampleScenario.node[33].veinsmobility 	minSpeed 	0.25088222872606
scalar RSUExampleScenario.node[33].veinsmobility 	maxSpeed 	18.999737033634
scalar RSUExampleScenario.node[33].veinsmobility 	totalDistance 	3409.8259275996
scalar RSUExampleScenario.node[33].veinsmobility 	totalCO2Emission 	707.10775801423
scalar RSUExampleScenario.node[34].veinsmobility 	startTime 	204.1
scalar RSUExampleScenario.node[34].veinsmobility 	totalTime 	226.5
scalar RSUExampleScenario.node[34].veinsmobility 	stopTime 	430.7
scalar RSUExampleScenario.node[34].veinsmobility 	minSpeed 	0.25910530456319
scalar RSUExampleScenario.node[34].veinsmobility 	maxSpeed 	18.999728784126
scalar RSUExampleScenario.node[34].veinsmobility 	totalDistance 	3409.4003067909
scalar RSUExampleScenario.node[34].veinsmobility 	totalCO2Emission 	706.82719833844
scalar RSUExampleScenario.node[35].veinsmobility 	startTime 	210.1
scalar RSUExampleScenario.node[35].veinsmobility 	totalTime 	227
scalar RSUExampleScenario.node[35].veinsmobility 	stopTime 	437.2
scalar RSUExampleScenario.node[35].veinsmobility 	minSpeed 	0.24752761849435
scalar RSUExampleScenario.node[35].veinsmobility 	maxSpeed 	18.999941190488
scalar RSUExampleScenario.node[35].veinsmobility 	totalDistance 	3409.3113079334
scalar RSUExampleScenario.node[35].veinsmobility 	totalCO2Emission 	707.684156167
scalar RSUExampleScenario.node[36].veinsmobility 	startTime 	216.1
scalar RSUExampleScenario.node[36].veinsmobility 	totalTime 	226.8
scalar RSUExampleScenario.node[36].veinsmobility 	stopTime 	443
scalar RSUExampleScenario.node[36].veinsmobility 	minSpeed 	0.24721341781854
scalar RSUExampleScenario.node[36].veinsmobility 	maxSpeed 	18.999858441968
scalar RSUExampleScenario.node[36].veinsmobility 	totalDistance 	3409.5814058207
scalar RSUExampleScenario.node[36].veinsmobility 	totalCO2Emission 	708.76691428537
scalar RSUExampleScenario.node[37].veinsmobility 	startTime 	222.1
scalar RSUExampleScenario.node[37].veinsmobility 	totalTime 	227.4
scalar RSUExampleScenario.node[37].veinsmobility 	stopTime 	449.6
scalar RSUExampleScenario.node[37].veinsmobility 	minSpeed 	0.25296621826012
scalar RSUExampleScenario.node[37].veinsmobility 	maxSpeed 	18.999980385378
scalar RSUExampleScenario.node[37].veinsmobility 	totalDistance 	3409.2228978539
scalar RSUExampleScenario.node[37].veinsmobility 	totalCO2Emission 	710.98235038917
scalar RSUExampleScenario.node[38].veinsmobility 	startTime 	228.1
scalar RSUExampleScenario.node[38].veinsmobility 	totalTime 	226.8
scalar RSUExampleScenario.node[38].veinsmobility 	stopTime 	455
scalar RSUExampleScenario.node[38].veinsmobility 	minSpeed 	0.2525337053421
scalar RSUExampleScenario.node[38].veinsmobility 	maxSpeed 	18.999911409365
scalar RSUExampleScenario.node[38].veinsmobility 	totalDistance 	3409.1752643656
scalar RSUExampleScenario.node[38].veinsmobility 	totalCO2Emission 	704.46905333596
scalar RSUExampleScenario.node[39].veinsmobility 	startTime 	234.1
scalar RSUExampleScenario.node[39].veinsmobility 	totalTime 	226.7
scalar RSUExampleScenario.node[39].veinsmobility 	stopTime 	460.9
scalar RSUExampleScenario.node[39].veinsmobility 	minSpeed 	0.25502564761369
scalar RSUExampleScenario.node[39].veinsmobility 	maxSpeed 	18.999958093159
scalar RSUExampleScenario.node[39].veinsmobility 	totalDistance 	3409.1426164966
scalar RSUExampleScenario.node[39].veinsmobility 	totalCO2Emission 	709.06499438843
scalar RSUExampleScenario.node[40].veinsmobility 	startTime 	240.1
scalar RSUExampleScenario.node[40].veinsmobility 	totalTime 	227
scalar RSUExampleScenario.node[40].veinsmobility 	stopTime 	467.2
scalar RSUExampleScenario.node[40].veinsmobility 	minSpeed 	0.25967946601799
scalar RSUExampleScenario.node[40].veinsmobility 	maxSpeed 	18.999676469003
scalar RSUExampleScenario.node[40].veinsmobility 	totalDistance 	3409.3244626369
scalar RSUExampleScenario.node[40].veinsmobility 	totalCO2Emission 	705.50097431962
scalar RSUExampleScenario.node[41].veinsmobility 	startTime 	246.1
scalar RSUExampleScenario.node[41].veinsmobility 	totalTime 	226.9
scalar RSUExampleScenario.node[41].veinsmobility 	stopTime 	473.1
scalar RSUExampleScenario.node[41].veinsmobility 	minSpeed 	0.25233224965166
scalar RSUExampleScenario.node[41].veinsmobility 	maxSpeed 	18.99990391592
scalar RSUExampleScenario.node[41].veinsmobility 	totalDistance 	3409.1730904493
scalar RSUExampleScenario.node[41].veinsmobility 	totalCO2Emission 	705.31909282633
scalar RSUExampleScenario.node[42].veinsmobility 	startTime 	252.1
scalar RSUExampleScenario.node[42].veinsmobility 	totalTime 	227
scalar RSUExampleScenario.node[42].veinsmobility 	stopTime 	479.2
scalar RSUExampleScenario.node[42].veinsmobility 	minSpeed 	0.2542405564806
scalar RSUExampleScenario.node[42].veinsmobility 	maxSpeed 	18.999798754775
scalar RSUExampleScenario.node[42].veinsmobility 	totalDistance 	3409.4032463501
scalar RSUExampleScenario.node[42].veinsmobility 	totalCO2Emission 	704.89717633815
scalar RSUExampleScenario.node[43].veinsmobility 	startTime 	258.1
scalar RSUExampleScenario.node[43].veinsmobility 	totalTime 	226.9
scalar RSUExampleScenario.node[43].veinsmobility 	stopTime 	485.1
scalar RSUExampleScenario.node[43].veinsmobility 	minSpeed 	0.25104932597512
scalar RSUExampleScenario.node[43].veinsmobility 	maxSpeed 	18.999733522548
scalar RSUExampleScenario.node[43].veinsmobility 	totalDistance 	3409.3178326827
scalar RSUExampleScenario.node[43].veinsmobility 	totalCO2Emission 	702.99809983826
scalar RSUExampleScenario.node[44].veinsmobility 	startTime 	264.1
scalar RSUExampleScenario.node[44].veinsmobility 	totalTime 	226.9
scalar RSUExampleScenario.node[44].veinsmobility 	stopTime 	491.1
scalar RSUExampleScenario.node[44].veinsmobility 	minSpeed 	0.24866502246191
scalar RSUExampleScenario.node[44].veinsmobility 	maxSpeed 	18.9995558829
scalar RSUExampleScenario.node[44].veinsmobility 	totalDistance 	3409.4925745967
scalar RSUExampleScenario.node[44].veinsmobility 	totalCO2Emission 	707.70462459767
scalar RSUExampleScenario.node[45].veinsmobility 	startTime 	270.1
scalar RSUExampleScenario.node[45].veinsmobility 	totalTime 	226.5
scalar RSUExampleScenario.node[45].veinsmobility 	stopTime 	496.7
scalar RSUExampleScenario.node[45].veinsmobility 	minSpeed 	0.25903323311615
scalar RSUExampleScenario.node[45].veinsmobility 	maxSpeed 	18.999437771568
scalar RSUExampleScenario.node[45].veinsmobility 	totalDistance 	3409.5213880735
scalar RSUExampleScenario.node[45].veinsmobility 	totalCO2Emission 	707.46425945766
scalar RSUExampleScenario.node[46].veinsmobility 	startTime 	276.1
scalar RSUExampleScenario.node[46].veinsmobility 	totalTime 	226.9
scalar RSUExampleScenario.node[46].veinsmobility 	stopTime 	503.1
scalar RSUExampleScenario.node[46].veinsmobility 	minSpeed 	0.25384184109885
scalar RSUExampleScenario.node[46].veinsmobility 	maxSpeed 	18.999839366206
scalar RSUExampleScenario.node[46].veinsmobility 	totalDistance 	3409.6502106056
scalar RSUExampleScenario.node[46].veinsmobility 	totalCO2Emission 	712.05771137071
scalar RSUExampleScenario.node[47].veinsmobility 	startTime 	282.1
scalar RSUExampleScenario.node[47].veinsmobility 	totalTime 	227.1
scalar RSUExampleScenario.node[47].veinsmobility 	stopTime 	509.3
scalar RSUExampleScenario.node[47].veinsmobility 	minSpeed 	0.24781043300545
scalar RSUExampleScenario.node[47].veinsmobility 	maxSpeed 	18.999167102545
scalar RSUExampleScenario.node[47].veinsmobility 	totalDistance 	3409.7744012043
scalar RSUExampleScenario.node[47].veinsmobility 	totalCO2Emission 	705.97941984258
scalar RSUExampleScenario.node[48].veinsmobility 	startTime 	288.1
scalar RSUExampleScenario.node[48].veinsmobility 	totalTime 	227
scalar RSUExampleScenario.node[48].veinsmobility 	stopTime 	515.2
scalar RSUExampleScenario.node[48].veinsmobility 	minSpeed 	0.24763631069963
scalar RSUExampleScenario.node[48].veinsmobility 	maxSpeed 	18.999895184455
scalar RSUExampleScenario.node[48].veinsmobility 	totalDistance 	3409.5303235967
scalar RSUExampleScenario.node[48].veinsmobility 	totalCO2Emission 	703.2292471598
scalar RSUExampleScenario.node[49].veinsmobility 	startTime 	294.1
scalar RSUExampleScenario.node[49].veinsmobility 	totalTime 	227
scalar RSUExampleScenario.node[49].veinsmobility 	stopTime 	521.2
scalar RSUExampleScenario.node[49].veinsmobility 	minSpeed 	0.24733198428457
scalar RSUExampleScenario.node[49].veinsmobility 	maxSpeed 	18.999790942487
scalar RSUExampleScenario.node[49].veinsmobility 	totalDistance 	3409.4271581419
scalar RSUExampleScenario.node[49].veinsmobility 	totalCO2Emission 	707.2724428749
scalar RSUExampleScenario.node[50].veinsmobility 	startTime 	300.1
scalar RSUExampleScenario.node[50].veinsmobility 	totalTime 	226.7
scalar RSUExampleScenario.node[50].veinsmobility 	stopTime 	526.9
scalar RSUExampleScenario.node[50].veinsmobility 	minSpeed 	0.25777070340165
scalar RSUExampleScenario.node[50].veinsmobility 	maxSpeed 	18.9999516044
scalar RSUExampleScenario.node[50].veinsmobility 	totalDistance 	3409.4456429958
scalar RSUExampleScenario.node[50].veinsmobility 	totalCO2Emission 	706.45930855471
scalar RSUExampleScenario.node[51].veinsmobility 	startTime 	306.1
scalar RSUExampleScenario.node[51].veinsmobility 	totalTime 	227
scalar RSUExampleScenario.node[51].veinsmobility 	stopTime 	533.2
scalar RSUExampleScenario.node[51].veinsmobility 	minSpeed 	0.25534860590682
scalar RSUExampleScenario.node[51].veinsmobility 	maxSpeed 	18.999997518994
scalar RSUExampleScenario.node[51].veinsmobility 	totalDistance 	3409.867721012
scalar RSUExampleScenario.node[51].veinsmobility 	totalCO2Emission 	708.29919318406
scalar RSUExampleScenario.node[52].veinsmobility 	startTime 	312.1
scalar RSUExampleScenario.node[52].veinsmobility 	totalTime 	227.3
scalar RSUExampleScenario.node[52].veinsmobility 	stopTime 	539.5
scalar RSUExampleScenario.node[52].veinsmobility 	minSpeed 	0.24830348979076
scalar RSUExampleScenario.node[52].veinsmobility 	maxSpeed 	18.999601918717
scalar RSUExampleScenario.node[52].veinsmobility 	totalDistance 	3409.4193255549
scalar RSUExampleScenario.node[52].veinsmobility 	totalCO2Emission 	708.41626313603
scalar RSUExampleScenario.node[53].veinsmobility 	startTime 	318.1
scalar RSUExampleScenario.node[53].veinsmobility 	totalTime 	226.9
scalar RSUExampleScenario.node[53].veinsmobility 	stopTime 	545.1
scalar RSUExampleScenario.node[53].veinsmobility 	minSpeed 	0.25692022958887
scalar RSUExampleScenario.node[53].veinsmobility 	maxSpeed 	18.99955641598
scalar RSUExampleScenario.node[53].veinsmobility 	totalDistance 	3409.7599858233
scalar RSUExampleScenario.node[53].veinsmobility 	totalCO2Emission 	709.63839798365
scalar RSUExampleScenario.node[54].veinsmobility 	startTime 	324.1
scalar RSUExampleScenario.node[54].veinsmobility 	totalTime 	227
scalar RSUExampleScenario.node[54].veinsmobility 	stopTime 	551.2
scalar RSUExampleScenario.node[54].veinsmobility 	minSpeed 	0.25765961738024
scalar RSUExampleScenario.node[54].veinsmobility 	maxSpeed 	18.999673553046
scalar RSUExampleScenario.node[54].veinsmobility 	totalDistance 	3409.230254188
scalar RSUExampleScenario.node[54].veinsmobility 	totalCO2Emission 	704.1370996718
scalar RSUExampleScenario.node[55].veinsmobility 	startTime 	330.1
scalar RSUExampleScenario.node[55].veinsmobility 	totalTime 	226.6
scalar RSUExampleScenario.node[55].veinsmobility 	stopTime 	556.8
scalar RSUExampleScenario.node[55].veinsmobility 	minSpeed 	0.25719862427819
scalar RSUExampleScenario.node[55].veinsmobility 	maxSpeed 	18.999808478637
scalar RSUExampleScenario.node[55].veinsmobility 	totalDistance 	3409.2143479344
scalar RSUExampleScenario.node[55].veinsmobility 	totalCO2Emission 	704.85984047387
scalar RSUExampleScenario.node[56].veinsmobility 	startTime 	336.1
scalar RSUExampleScenario.node[56].veinsmobility 	totalTime 	227
scalar RSUExampleScenario.node[56].veinsmobility 	stopTime 	563.2
scalar RSUExampleScenario.node[56].veinsmobility 	minSpeed 	0.25050012915977
scalar RSUExampleScenario.node[56].veinsmobility 	maxSpeed 	18.999891723704
scalar RSUExampleScenario.node[56].veinsmobility 	totalDistance 	3409.4986874372
scalar RSUExampleScenario.node[56].veinsmobility 	totalCO2Emission 	708.46381851221
scalar RSUExampleScenario.node[57].veinsmobility 	startTime 	342.1
scalar RSUExampleScenario.node[57].veinsmobility 	totalTime 	226.8
scalar RSUExampleScenario.node[57].veinsmobility 	stopTime 	569
scalar RSUExampleScenario.node[57].veinsmobility 	minSpeed 	0.25043298603059
scalar RSUExampleScenario.node[57].veinsmobility 	maxSpeed 	18.999770279806
scalar RSUExampleScenario.node[57].veinsmobility 	totalDistance 	3409.4273528758
scalar RSUExampleScenario.node[57].veinsmobility 	totalCO2Emission 	709.11450106915
scalar RSUExampleScenario.node[58].veinsmobility 	startTime 	348.1
scalar RSUExampleScenario.node[58].veinsmobility 	totalTime 	227
scalar RSUExampleScenario.node[58].veinsmobility 	stopTime 	575.2
scalar RSUExampleScenario.node[58].veinsmobility 	minSpeed 	0.25664453987661
scalar RSUExampleScenario.node[58].veinsmobility 	maxSpeed 	18.999936745393
scalar RSUExampleScenario.node[58].veinsmobility 	totalDistance 	3409.4776779443
scalar RSUExampleScenario.node[58].veinsmobility 	totalCO2Emission 	709.36611269421
scalar RSUExampleScenario.node[59].veinsmobility 	startTime 	354.1
scalar RSUExampleScenario.node[59].veinsmobility 	totalTime 	227.2
scalar RSUExampleScenario.node[59].veinsmobility 	stopTime 	581.4
scalar RSUExampleScenario.node[59].veinsmobility 	minSpeed 	0.24818749270122
scalar RSUExampleScenario.node[59].veinsmobility 	maxSpeed 	18.99974824874
scalar RSUExampleScenario.node[59].veinsmobility 	totalDistance 	3409.4673413728
scalar RSUExampleScenario.node[59].veinsmobility 	totalCO2Emission 	708.05943132708
scalar RSUExampleScenario.node[60].veinsmobility 	startTime 	360.1
scalar RSUExampleScenario.node[60].veinsmobility 	totalTime 	227.1
scalar RSUExampleScenario.node[60].veinsmobility 	stopTime 	587.3
scalar RSUExampleScenario.node[60].veinsmobility 	minSpeed 	0.2514489044908
scalar RSUExampleScenario.node[60].veinsmobility 	maxSpeed 	18.999668982036
scalar RSUExampleScenario.node[60].veinsmobility 	totalDistance 	3409.5531588086
scalar RSUExampleScenario.node[60].veinsmobility 	totalCO2Emission 	707.53124936795
scalar RSUExampleScenario.node[61].veinsmobility 	startTime 	366.1
scalar RSUExampleScenario.node[61].veinsmobility 	totalTime 	227
scalar RSUExampleScenario.node[61].veinsmobility 	stopTime 	593.2
scalar RSUExampleScenario.node[61].veinsmobility 	minSpeed 	0.2528729620818
scalar RSUExampleScenario.node[61].veinsmobility 	maxSpeed 	18.99987469651
scalar RSUExampleScenario.node[61].veinsmobility 	totalDistance 	3409.6064823792
scalar RSUExampleScenario.node[61].veinsmobility 	totalCO2Emission 	705.46242373722
scalar RSUExampleScenario.node[62].veinsmobility 	startTime 	372.1
scalar RSUExampleScenario.node[62].veinsmobility 	totalTime 	226.9
scalar RSUExampleScenario.node[62].veinsmobility 	stopTime 	599.1
scalar RSUExampleScenario.node[62].veinsmobility 	minSpeed 	0.2526013757789
scalar RSUExampleScenario.node[62].veinsmobility 	maxSpeed 	18.999980453209
scalar RSUExampleScenario.node[62].veinsmobility 	totalDistance 	3409.7530328789
scalar RSUExampleScenario.node[62].veinsmobility 	totalCO2Emission 	708.45966991921
scalar RSUExampleScenario.node[63].veinsmobility 	startTime 	378.1
scalar RSUExampleScenario.node[63].veinsmobility 	totalTime 	226.9
scalar RSUExampleScenario.node[63].veinsmobility 	stopTime 	605.1
scalar RSUExampleScenario.node[63].veinsmobility 	minSpeed 	0.25722166855633
scalar RSUExampleScenario.node[63].veinsmobility 	maxSpeed 	18.999975285374
scalar RSUExampleScenario.node[63].veinsmobility 	totalDistance 	3409.3308455582
scalar RSUExampleScenario.node[63].veinsmobility 	totalCO2Emission 	708.96599600611
scalar RSUExampleScenario.node[64].veinsmobility 	startTime 	384.1
scalar RSUExampleScenario.node[64].veinsmobility 	totalTime 	226.8
scalar RSUExampleScenario.node[64].veinsmobility 	stopTime 	611
scalar RSUExampleScenario.node[64].veinsmobility 	minSpeed 	0.25405852587707
scalar RSUExampleScenario.node[64].veinsmobility 	maxSpeed 	18.999977567731
scalar RSUExampleScenario.node[64].veinsmobility 	totalDistance 	3409.3599094145
scalar RSUExampleScenario.node[64].veinsmobility 	totalCO2Emission 	708.36215864192
scalar RSUExampleScenario.node[65].veinsmobility 	startTime 	390.1
scalar RSUExampleScenario.node[65].veinsmobility 	totalTime 	227.1
scalar RSUExampleScenario.node[65].veinsmobility 	stopTime 	617.3
scalar RSUExampleScenario.node[65].veinsmobility 	minSpeed 	0.24782811983535
scalar RSUExampleScenario.node[65].veinsmobility 	maxSpeed 	18.999270308046
scalar RSUExampleScenario.node[65].veinsmobility 	totalDistance 	3409.5823075781
scalar RSUExampleScenario.node[65].veinsmobility 	totalCO2Emission 	707.2623450508
scalar RSUExampleScenario.node[66].veinsmobility 	startTime 	396.1
scalar RSUExampleScenario.node[66].veinsmobility 	totalTime 	226.9
scalar RSUExampleScenario.node[66].veinsmobility 	stopTime 	623.1
scalar RSUExampleScenario.node[66].veinsmobility 	minSpeed 	0.25406567160017
scalar RSUExampleScenario.node[66].veinsmobility 	maxSpeed 	18.999900482562
scalar RSUExampleScenario.node[66].veinsmobility 	totalDistance 	3409.8113395584
scalar RSUExampleScenario.node[66].veinsmobility 	totalCO2Emission 	707.82968505194
scalar RSUExampleScenario.node[67].veinsmobility 	startTime 	402.1
scalar RSUExampleScenario.node[67].veinsmobility 	totalTime 	226.8
scalar RSUExampleScenario.node[67].veinsmobility 	stopTime 	629
scalar RSUExampleScenario.node[67].veinsmobility 	minSpeed 	0.25590535877622
scalar RSUExampleScenario.node[67].veinsmobility 	maxSpeed 	18.999916431308
scalar RSUExampleScenario.node[67].veinsmobility 	totalDistance 	3409.5353028698
scalar RSUExampleScenario.node[67].veinsmobility 	totalCO2Emission 	707.75304807045
scalar RSUExampleScenario.node[68].veinsmobility 	startTime 	408.1
scalar RSUExampleScenario.node[68].veinsmobility 	totalTime 	227.1
scalar RSUExampleScenario.node[68].veinsmobility 	stopTime 	635.3
scalar RSUExampleScenario.node[68].veinsmobility 	minSpeed 	0.25764843531256
scalar RSUExampleScenario.node[68].veinsmobility 	maxSpeed 	18.99979987578
scalar RSUExampleScenario.node[68].veinsmobility 	totalDistance 	3409.4516406415
scalar RSUExampleScenario.node[68].veinsmobility 	totalCO2Emission 	708.19073949868
scalar RSUExampleScenario.node[69].veinsmobility 	startTime 	414.1
scalar RSUExampleScenario.node[69].veinsmobility 	totalTime 	226.9
scalar RSUExampleScenario.node[69].veinsmobility 	stopTime 	641.1
scalar RSUExampleScenario.node[69].veinsmobility 	minSpeed 	0.25344973013969
scalar RSUExampleScenario.node[69].veinsmobility 	maxSpeed 	18.999927324392
scalar RSUExampleScenario.node[69].veinsmobility 	totalDistance 	3409.33166065
scalar RSUExampleScenario.node[69].veinsmobility 	totalCO2Emission 	707.73181808523
scalar RSUExampleScenario.node[70].veinsmobility 	startTime 	420.1
scalar RSUExampleScenario.node[70].veinsmobility 	totalTime 	227
scalar RSUExampleScenario.node[70].veinsmobility 	stopTime 	647.2
scalar RSUExampleScenario.node[70].veinsmobility 	minSpeed 	0.25488344806037
scalar RSUExampleScenario.node[70].veinsmobility 	maxSpeed 	18.999751219694
scalar RSUExampleScenario.node[70].veinsmobility 	totalDistance 	3409.3008625325
scalar RSUExampleScenario.node[70].veinsmobility 	totalCO2Emission 	708.38241954364
scalar RSUExampleScenario.node[71].veinsmobility 	startTime 	426.1
scalar RSUExampleScenario.node[71].veinsmobility 	totalTime 	226.7
scalar RSUExampleScenario.node[71].veinsmobility 	stopTime 	652.9
scalar RSUExampleScenario.node[71].veinsmobility 	minSpeed 	0.25497847168613
scalar RSUExampleScenario.node[71].veinsmobility 	maxSpeed 	18.99990691802
scalar RSUExampleScenario.node[71].veinsmobility 	totalDistance 	3409.1277038771
scalar RSUExampleScenario.node[71].veinsmobility 	totalCO2Emission 	704.7473402257
scalar RSUExampleScenario.node[72].veinsmobility 	startTime 	432.1
scalar RSUExampleScenario.node[72].veinsmobility 	totalTime 	226.9
scalar RSUExampleScenario.node[72].veinsmobility 	stopTime 	659.1
scalar RSUExampleScenario.node[72].veinsmobility 	minSpeed 	0.2510914680222
scalar RSUExampleScenario.node[72].veinsmobility 	maxSpeed 	18.999883882208
scalar RSUExampleScenario.node[72].veinsmobility 	totalDistance 	3409.4769502871
scalar RSUExampleScenario.node[72].veinsmobility 	totalCO2Emission 	706.36457853408
scalar RSUExampleScenario.node[73].veinsmobility 	startTime 	438.1
scalar RSUExampleScenario.node[73].veinsmobility 	totalTime 	227.2
scalar RSUExampleScenario.node[73].veinsmobility 	stopTime 	665.4
scalar RSUExampleScenario.node[73].veinsmobility 	minSpeed 	0.25400908902194
scalar RSUExampleScenario.node[73].veinsmobility 	maxSpeed 	18.99993527343
scalar RSUExampleScenario.node[73].veinsmobility 	totalDistance 	3409.5186457001
scalar RSUExampleScenario.node[73].veinsmobility 	totalCO2Emission 	710.78921334917
scalar RSUExampleScenario.node[74].veinsmobility 	startTime 	444.1
scalar RSUExampleScenario.node[74].veinsmobility 	totalTime 	226.8
scalar RSUExampleScenario.node[74].veinsmobility 	stopTime 	671
scalar RSUExampleScenario.node[74].veinsmobility 	minSpeed 	0.25477412920189
scalar RSUExampleScenario.node[74].veinsmobility 	maxSpeed 	18.999473480494
scalar RSUExampleScenario.node[74].veinsmobility 	totalDistance 	3409.4295683057
scalar RSUExampleScenario.node[74].veinsmobility 	totalCO2Emission 	707.95250818908
scalar RSUExampleScenario.node[75].veinsmobility 	startTime 	450.1
scalar RSUExampleScenario.node[75].veinsmobility 	totalTime 	226.9
scalar RSUExampleScenario.node[75].veinsmobility 	stopTime 	677.1
scalar RSUExampleScenario.node[75].veinsmobility 	minSpeed 	0.25202688581962
scalar RSUExampleScenario.node[75].veinsmobility 	maxSpeed 	18.999900345358
scalar RSUExampleScenario.node[75].veinsmobility 	totalDistance 	3409.3715450385
scalar RSUExampleScenario.node[75].veinsmobility 	totalCO2Emission 	708.00285186442
scalar RSUExampleScenario.node[76].veinsmobility 	startTime 	456.1
scalar RSUExampleScenario.node[76].veinsmobility 	totalTime 	227.2
scalar RSUExampleScenario.node[76].veinsmobility 	stopTime 	683.4
scalar RSUExampleScenario.node[76].veinsmobility 	minSpeed 	0.25276295676664
scalar RSUExampleScenario.node[76].veinsmobility 	maxSpeed 	18.999675726499
scalar RSUExampleScenario.node[76].veinsmobility 	totalDistance 	3409.5874790767
scalar RSUExampleScenario.node[76].veinsmobility 	totalCO2Emission 	706.41855533387
scalar RSUExampleScenario.node[77].veinsmobility 	startTime 	462.1
scalar RSUExampleScenario.node[77].veinsmobility 	totalTime 	227.2
scalar RSUExampleScenario.node[77].veinsmobility 	stopTime 	689.4
scalar RSUExampleScenario.node[77].veinsmobility 	minSpeed 	0.25339492080221
scalar RSUExampleScenario.node[77].veinsmobility 	maxSpeed 	18.999823113389
scalar RSUExampleScenario.node[77].veinsmobility 	totalDistance 	3409.1258292203
scalar RSUExampleScenario.node[77].veinsmobility 	totalCO2Emission 	708.39054034553
scalar RSUExampleScenario.node[78].veinsmobility 	startTime 	468.1
scalar RSUExampleScenario.node[78].veinsmobility 	totalTime 	227
scalar RSUExampleScenario.node[78].veinsmobility 	stopTime 	695.2
scalar RSUExampleScenario.node[78].veinsmobility 	minSpeed 	0.25617029424966
scalar RSUExampleScenario.node[78].veinsmobility 	maxSpeed 	18.999799024614
scalar RSUExampleScenario.node[78].veinsmobility 	totalDistance 	3409.3842005361
scalar RSUExampleScenario.node[78].veinsmobility 	totalCO2Emission 	704.83673294686
scalar RSUExampleScenario.node[79].veinsmobility 	startTime 	474.1
scalar RSUExampleScenario.node[79].veinsmobility 	totalTime 	226.6
scalar RSUExampleScenario.node[79].veinsmobility 	stopTime 	700.8
scalar RSUExampleScenario.node[79].veinsmobility 	minSpeed 	0.2506281209609
scalar RSUExampleScenario.node[79].veinsmobility 	maxSpeed 	18.999411429039
scalar RSUExampleScenario.node[79].veinsmobility 	totalDistance 	3409.668554842
scalar RSUExampleScenario.node[79].veinsmobility 	totalCO2Emission 	707.79520167873
scalar RSUExampleScenario.node[80].veinsmobility 	startTime 	480.1
scalar RSUExampleScenario.node[80].veinsmobility 	totalTime 	227
scalar RSUExampleScenario.node[80].veinsmobility 	stopTime 	707.2
scalar RSUExampleScenario.node[80].veinsmobility 	minSpeed 	0.25014931717538
scalar RSUExampleScenario.node[80].veinsmobility 	maxSpeed 	18.999986017281
scalar RSUExampleScenario.node[80].veinsmobility 	totalDistance 	3409.5927066013
scalar RSUExampleScenario.node[80].veinsmobility 	totalCO2Emission 	706.06358153984
scalar RSUExampleScenario.node[81].veinsmobility 	startTime 	486.1
scalar RSUExampleScenario.node[81].veinsmobility 	totalTime 	226.7
scalar RSUExampleScenario.node[81].veinsmobility 	stopTime 	712.9
scalar RSUExampleScenario.node[81].veinsmobility 	minSpeed 	0.25821601345367
scalar RSUExampleScenario.node[81].veinsmobility 	maxSpeed 	18.999227198174
scalar RSUExampleScenario.node[81].veinsmobility 	totalDistance 	3409.3484370264
scalar RSUExampleScenario.node[81].veinsmobility 	totalCO2Emission 	706.34983694638
scalar RSUExampleScenario.node[82].veinsmobility 	startTime 	492.1
scalar RSUExampleScenario.node[82].veinsmobility 	totalTime 	226.8
scalar RSUExampleScenario.node[82].veinsmobility 	stopTime 	719
scalar RSUExampleScenario.node[82].veinsmobility 	minSpeed 	0.24942584538856
scalar RSUExampleScenario.node[82].veinsmobility 	maxSpeed 	18.999847640716
scalar RSUExampleScenario.node[82].veinsmobility 	totalDistance 	3409.4978963479
scalar RSUExampleScenario.node[82].veinsmobility 	totalCO2Emission 	705.64333584573
scalar RSUExampleScenario.node[83].veinsmobility 	startTime 	498.1
scalar RSUExampleScenario.node[83].veinsmobility 	totalTime 	227.1
scalar RSUExampleScenario.node[83].veinsmobility 	stopTime 	725.3
scalar RSUExampleScenario.node[83].veinsmobility 	minSpeed 	0.25776614121743
scalar RSUExampleScenario.node[83].veinsmobility 	maxSpeed 	18.998415313358
scalar RSUExampleScenario.node[83].veinsmobility 	totalDistance 	3409.4855526953
scalar RSUExampleScenario.node[83].veinsmobility 	totalCO2Emission 	704.58000620688
scalar RSUExampleScenario.node[84].veinsmobility 	startTime 	504.1
scalar RSUExampleScenario.node[84].veinsmobility 	totalTime 	227
scalar RSUExampleScenario.node[84].veinsmobility 	stopTime 	731.2
scalar RSUExampleScenario.node[84].veinsmobility 	minSpeed 	0.24862761785975
scalar RSUExampleScenario.node[84].veinsmobility 	maxSpeed 	18.99991794274
scalar RSUExampleScenario.node[84].veinsmobility 	totalDistance 	3409.2954674824
scalar RSUExampleScenario.node[84].veinsmobility 	totalCO2Emission 	710.26948534622
scalar RSUExampleScenario.node[85].veinsmobility 	startTime 	510.1
scalar RSUExampleScenario.node[85].veinsmobility 	totalTime 	227.2
scalar RSUExampleScenario.node[85].veinsmobility 	stopTime 	737.4
scalar RSUExampleScenario.node[85].veinsmobility 	minSpeed 	0.25888780972594
scalar RSUExampleScenario.node[85].veinsmobility 	maxSpeed 	18.999832323422
scalar RSUExampleScenario.node[85].veinsmobility 	totalDistance 	3409.4190516189
scalar RSUExampleScenario.node[85].veinsmobility 	totalCO2Emission 	709.16213417281
scalar RSUExampleScenario.node[86].veinsmobility 	startTime 	516.1
scalar RSUExampleScenario.node[86].veinsmobility 	totalTime 	226.7
scalar RSUExampleScenario.node[86].veinsmobility 	stopTime 	742.9
scalar RSUExampleScenario.node[86].veinsmobility 	minSpeed 	0.25496378123527
scalar RSUExampleScenario.node[86].veinsmobility 	maxSpeed 	18.999985466283
scalar RSUExampleScenario.node[86].veinsmobility 	totalDistance 	3409.510551686
scalar RSUExampleScenario.node[86].veinsmobility 	totalCO2Emission 	704.94584240267
scalar RSUExampleScenario.node[87].veinsmobility 	startTime 	522.1
scalar RSUExampleScenario.node[87].veinsmobility 	totalTime 	226.9
scalar RSUExampleScenario.node[87].veinsmobility 	stopTime 	749.1
scalar RSUExampleScenario.node[87].veinsmobility 	minSpeed 	0.25678041426581
scalar RSUExampleScenario.node[87].veinsmobility 	maxSpeed 	18.999938621372
scalar RSUExampleScenario.node[87].veinsmobility 	totalDistance 	3409.8428282278
scalar RSUExampleScenario.node[87].veinsmobility 	totalCO2Emission 	705.96096983744
scalar RSUExampleScenario.node[88].veinsmobility 	startTime 	528.1
scalar RSUExampleScenario.node[88].veinsmobility 	totalTime 	226.9
scalar RSUExampleScenario.node[88].veinsmobility 	stopTime 	755.1
scalar RSUExampleScenario.node[88].veinsmobility 	minSpeed 	0.25976690056431
scalar RSUExampleScenario.node[88].veinsmobility 	maxSpeed 	18.999648359672
scalar RSUExampleScenario.node[88].veinsmobility 	totalDistance 	3409.5753305692
scalar RSUExampleScenario.node[88].veinsmobility 	totalCO2Emission 	712.92219753005
scalar RSUExampleScenario.node[89].veinsmobility 	startTime 	534.1
scalar RSUExampleScenario.node[89].veinsmobility 	totalTime 	227.1
scalar RSUExampleScenario.node[89].veinsmobility 	stopTime 	761.3
scalar RSUExampleScenario.node[89].veinsmobility 	minSpeed 	0.25886255762237
scalar RSUExampleScenario.node[89].veinsmobility 	maxSpeed 	18.999878115703
scalar RSUExampleScenario.node[89].veinsmobility 	totalDistance 	3410.0069079137
scalar RSUExampleScenario.node[89].veinsmobility 	totalCO2Emission 	710.82440867582
scalar RSUExampleScenario.node[90].veinsmobility 	startTime 	540.1
scalar RSUExampleScenario.node[90].veinsmobility 	totalTime 	226.7
scalar RSUExampleScenario.node[90].veinsmobility 	stopTime 	766.9
scalar RSUExampleScenario.node[90].veinsmobility 	minSpeed 	0.25187628724589
scalar RSUExampleScenario.node[90].veinsmobility 	maxSpeed 	18.99998511587
scalar RSUExampleScenario.node[90].veinsmobility 	totalDistance 	3409.2421387535
scalar RSUExampleScenario.node[90].veinsmobility 	totalCO2Emission 	708.1664767006
scalar RSUExampleScenario.node[91].veinsmobility 	startTime 	546.1
scalar RSUExampleScenario.node[91].veinsmobility 	totalTime 	226.5
scalar RSUExampleScenario.node[91].veinsmobility 	stopTime 	772.7
scalar RSUExampleScenario.node[91].veinsmobility 	minSpeed 	0.24742186175077
scalar RSUExampleScenario.node[91].veinsmobility 	maxSpeed 	18.99994204229
scalar RSUExampleScenario.node[91].veinsmobility 	totalDistance 	3409.5269921993
scalar RSUExampleScenario.node[91].veinsmobility 	totalCO2Emission 	706.30618985172
scalar RSUExampleScenario.node[92].veinsmobility 	startTime 	552.1
scalar RSUExampleScenario.node[92].veinsmobility 	totalTime 	226.7
scalar RSUExampleScenario.node[92].veinsmobility 	stopTime 	778.9
scalar RSUExampleScenario.node[92].veinsmobility 	minSpeed 	0.25094580300571
scalar RSUExampleScenario.node[92].veinsmobility 	maxSpeed 	18.999854794766
scalar RSUExampleScenario.node[92].veinsmobility 	totalDistance 	3409.4818964512
scalar RSUExampleScenario.node[92].veinsmobility 	totalCO2Emission 	706.48973519139
scalar RSUExampleScenario.node[93].veinsmobility 	startTime 	558.1
scalar RSUExampleScenario.node[93].veinsmobility 	totalTime 	226.8
scalar RSUExampleScenario.node[93].veinsmobility 	stopTime 	785
scalar RSUExampleScenario.node[93].veinsmobility 	minSpeed 	0.25674306039582
scalar RSUExampleScenario.node[93].veinsmobility 	maxSpeed 	18.999992738802
scalar RSUExampleScenario.node[93].veinsmobility 	totalDistance 	3410.0396733942
scalar RSUExampleScenario.node[93].veinsmobility 	totalCO2Emission 	706.42743093852
scalar RSUExampleScenario.node[94].veinsmobility 	startTime 	564.1
scalar RSUExampleScenario.node[94].veinsmobility 	totalTime 	226.9
scalar RSUExampleScenario.node[94].veinsmobility 	stopTime 	791.1
scalar RSUExampleScenario.node[94].veinsmobility 	minSpeed 	0.25333872010908
scalar RSUExampleScenario.node[94].veinsmobility 	maxSpeed 	18.999917855356
scalar RSUExampleScenario.node[94].veinsmobility 	totalDistance 	3409.4984970578
scalar RSUExampleScenario.node[94].veinsmobility 	totalCO2Emission 	710.38415940764
scalar RSUExampleScenario.node[95].veinsmobility 	startTime 	570.1
scalar RSUExampleScenario.node[95].veinsmobility 	totalTime 	226.9
scalar RSUExampleScenario.node[95].veinsmobility 	stopTime 	797.1
scalar RSUExampleScenario.node[95].veinsmobility 	minSpeed 	0.25553250894533
scalar RSUExampleScenario.node[95].veinsmobility 	maxSpeed 	18.999542501122
scalar RSUExampleScenario.node[95].veinsmobility 	totalDistance 	3409.7495037067
scalar RSUExampleScenario.node[95].veinsmobility 	totalCO2Emission 	705.16628676424
scalar RSUExampleScenario.node[96].veinsmobility 	startTime 	576.1
scalar RSUExampleScenario.node[96].veinsmobility 	totalTime 	226.9
scalar RSUExampleScenario.node[96].veinsmobility 	stopTime 	803.1
scalar RSUExampleScenario.node[96].veinsmobility 	minSpeed 	0.2533233912338
scalar RSUExampleScenario.node[96].veinsmobility 	maxSpeed 	18.999915757119
scalar RSUExampleScenario.node[96].veinsmobility 	totalDistance 	3409.1582304506
scalar RSUExampleScenario.node[96].veinsmobility 	totalCO2Emission 	704.97314945031
scalar RSUExampleScenario.node[97].veinsmobility 	startTime 	582.1
scalar RSUExampleScenario.node[97].veinsmobility 	totalTime 	227
scalar RSUExampleScenario.node[97].veinsmobility 	stopTime 	809.2
scalar RSUExampleScenario.node[97].veinsmobility 	minSpeed 	0.25416398387868
scalar RSUExampleScenario.node[97].veinsmobility 	maxSpeed 	18.99941293472
scalar RSUExampleScenario.node[97].veinsmobility 	totalDistance 	3409.3873730045
scalar RSUExampleScenario.node[97].veinsmobility 	totalCO2Emission 	703.8054947269
scalar RSUExampleScenario.node[98].veinsmobility 	startTime 	588.1
scalar RSUExampleScenario.node[98].veinsmobility 	totalTime 	227
scalar RSUExampleScenario.node[98].veinsmobility 	stopTime 	815.2
scalar RSUExampleScenario.node[98].veinsmobility 	minSpeed 	0.24847349654976
scalar RSUExampleScenario.node[98].veinsmobility 	maxSpeed 	18.999881655725
scalar RSUExampleScenario.node[98].veinsmobility 	totalDistance 	3409.145793713
scalar RSUExampleScenario.node[98].veinsmobility 	totalCO2Emission 	708.46429695029
scalar RSUExampleScenario.node[99].veinsmobility 	startTime 	594.1
scalar RSUExampleScenario.node[99].veinsmobility 	totalTime 	226.7
scalar RSUExampleScenario.node[99].veinsmobility 	stopTime 	820.9
scalar RSUExampleScenario.node[99].veinsmobility 	minSpeed 	0.25744910958014
scalar RSUExampleScenario.node[99].veinsmobility 	maxSpeed 	18.999941241974
scalar RSUExampleScenario.node[99].veinsmobility 	totalDistance 	3409.7873264491
scalar RSUExampleScenario.node[99].veinsmobility 	totalCO2Emission 	706.91664082422
scalar RSUExampleScenario.node[100].veinsmobility 	startTime 	600.1
scalar RSUExampleScenario.node[100].veinsmobility 	totalTime 	226.8
scalar RSUExampleScenario.node[100].veinsmobility 	stopTime 	827
scalar RSUExampleScenario.node[100].veinsmobility 	minSpeed 	0.25847661970044
scalar RSUExampleScenario.node[100].veinsmobility 	maxSpeed 	18.999735246038
scalar RSUExampleScenario.node[100].veinsmobility 	totalDistance 	3409.3469655057
scalar RSUExampleScenario.node[100].veinsmobility 	totalCO2Emission 	705.45525019499
scalar RSUExampleScenario.node[101].veinsmobility 	startTime 	606.1
scalar RSUExampleScenario.node[101].veinsmobility 	totalTime 	227
scalar RSUExampleScenario.node[101].veinsmobility 	stopTime 	833.2
scalar RSUExampleScenario.node[101].veinsmobility 	minSpeed 	0.25291486963374
scalar RSUExampleScenario.node[101].veinsmobility 	maxSpeed 	18.999273345256
scalar RSUExampleScenario.node[101].veinsmobility 	totalDistance 	3409.1361068467
scalar RSUExampleScenario.node[101].veinsmobility 	totalCO2Emission 	707.22039011558
scalar RSUExampleScenario.node[102].veinsmobility 	startTime 	612.1
scalar RSUExampleScenario.node[102].veinsmobility 	totalTime 	226.8
scalar RSUExampleScenario.node[102].veinsmobility 	stopTime 	839
scalar RSUExampleScenario.node[102].veinsmobility 	minSpeed 	0.25214536212943
scalar RSUExampleScenario.node[102].veinsmobility 	maxSpeed 	18.999606742889
scalar RSUExampleScenario.node[102].veinsmobility 	totalDistance 	3409.244403188
scalar RSUExampleScenario.node[102].veinsmobility 	totalCO2Emission 	707.81661419312
scalar RSUExampleScenario.node[103].veinsmobility 	startTime 	618.1
scalar RSUExampleScenario.node[103].veinsmobility 	totalTime 	227.1
scalar RSUExampleScenario.node[103].veinsmobility 	stopTime 	845.3
scalar RSUExampleScenario.node[103].veinsmobility 	minSpeed 	0.25763570034294
scalar RSUExampleScenario.node[103].veinsmobility 	maxSpeed 	18.999705967756
scalar RSUExampleScenario.node[103].veinsmobility 	totalDistance 	3409.8664814468
scalar RSUExampleScenario.node[103].veinsmobility 	totalCO2Emission 	710.53544964052
scalar RSUExampleScenario.node[104].veinsmobility 	startTime 	624.1
scalar RSUExampleScenario.node[104].veinsmobility 	totalTime 	226.6
scalar RSUExampleScenario.node[104].veinsmobility 	stopTime 	850.8
scalar RSUExampleScenario.node[104].veinsmobility 	minSpeed 	0.25549267147831
scalar RSUExampleScenario.node[104].veinsmobility 	maxSpeed 	18.999965765367
scalar RSUExampleScenario.node[104].veinsmobility 	totalDistance 	3409.2574999914
scalar RSUExampleScenario.node[104].veinsmobility 	totalCO2Emission 	709.52620531358
scalar RSUExampleScenario.node[105].veinsmobility 	startTime 	630.1
scalar RSUExampleScenario.node[105].veinsmobility 	totalTime 	227
scalar RSUExampleScenario.node[105].veinsmobility 	stopTime 	857.2
scalar RSUExampleScenario.node[105].veinsmobility 	minSpeed 	0.25077209965419
scalar RSUExampleScenario.node[105].veinsmobility 	maxSpeed 	18.999928795628
scalar RSUExampleScenario.node[105].veinsmobility 	totalDistance 	3409.266772389
scalar RSUExampleScenario.node[105].veinsmobility 	totalCO2Emission 	703.73434979723
scalar RSUExampleScenario.node[106].veinsmobility 	startTime 	636.1
scalar RSUExampleScenario.node[106].veinsmobility 	totalTime 	226.9
scalar RSUExampleScenario.node[106].veinsmobility 	stopTime 	863.1
scalar RSUExampleScenario.node[106].veinsmobility 	minSpeed 	0.24800976573885
scalar RSUExampleScenario.node[106].veinsmobility 	maxSpeed 	18.999891726519
scalar RSUExampleScenario.node[106].veinsmobility 	totalDistance 	3409.2403682213
scalar RSUExampleScenario.node[106].veinsmobility 	totalCO2Emission 	702.14260473341
scalar RSUExampleScenario.node[107].veinsmobility 	startTime 	642.1
scalar RSUExampleScenario.node[107].veinsmobility 	totalTime 	226.7
scalar RSUExampleScenario.node[107].veinsmobility 	stopTime 	868.9
scalar RSUExampleScenario.node[107].veinsmobility 	minSpeed 	0.24720804852946
scalar RSUExampleScenario.node[107].veinsmobility 	maxSpeed 	18.999983984907
scalar RSUExampleScenario.node[107].veinsmobility 	totalDistance 	3409.2970696223
scalar RSUExampleScenario.node[107].veinsmobility 	totalCO2Emission 	707.23866691266
scalar RSUExampleScenario.node[108].veinsmobility 	startTime 	648.1
scalar RSUExampleScenario.node[108].veinsmobility 	totalTime 	227.1
scalar RSUExampleScenario.node[108].veinsmobility 	stopTime 	875.3
scalar RSUExampleScenario.node[108].veinsmobility 	minSpeed 	0.25627485746308
scalar RSUExampleScenario.node[108].veinsmobility 	maxSpeed 	18.999724960583
scalar RSUExampleScenario.node[108].veinsmobility 	totalDistance 	3409.3787561765
scalar RSUExampleScenario.node[108].veinsmobility 	totalCO2Emission 	704.4729315424
scalar RSUExampleScenario.node[109].veinsmobility 	startTime 	654.1
scalar RSUExampleScenario.node[109].veinsmobility 	totalTime 	226.8
scalar RSUExampleScenario.node[109].veinsmobility 	stopTime 	881
scalar RSUExampleScenario.node[109].veinsmobility 	minSpeed 	0.25522806562018
scalar RSUExampleScenario.node[109].veinsmobility 	maxSpeed 	18.999918097288
scalar RSUExampleScenario.node[109].veinsmobility 	totalDistance 	3409.5155255041
scalar RSUExampleScenario.node[109].veinsmobility 	totalCO2Emission 	708.99613298928
scalar RSUExampleScenario.node[110].veinsmobility 	startTime 	660.1
scalar RSUExampleScenario.node[110].veinsmobility 	totalTime 	226.7
scalar RSUExampleScenario.node[110].veinsmobility 	stopTime 	886.9
scalar RSUExampleScenario.node[110].veinsmobility 	minSpeed 	0.25994939042698
scalar RSUExampleScenario.node[110].veinsmobility 	maxSpeed 	18.999706277822
scalar RSUExampleScenario.node[110].veinsmobility 	totalDistance 	3409.1650728453
scalar RSUExampleScenario.node[110].veinsmobility 	totalCO2Emission 	704.8547591335
scalar RSUExampleScenario.node[111].veinsmobility 	startTime 	666.1
scalar RSUExampleScenario.node[111].veinsmobility 	totalTime 	226.8
scalar RSUExampleScenario.node[111].veinsmobility 	stopTime 	893
scalar RSUExampleScenario.node[111].veinsmobility 	minSpeed 	0.25412773154536
scalar RSUExampleScenario.node[111].veinsmobility 	maxSpeed 	18.999256763849
scalar RSUExampleScenario.node[111].veinsmobility 	totalDistance 	3409.746125743
scalar RSUExampleScenario.node[111].veinsmobility 	totalCO2Emission 	709.41117183254
scalar RSUExampleScenario.node[112].veinsmobility 	startTime 	672.1
scalar RSUExampleScenario.node[112].veinsmobility 	totalTime 	226.8
scalar RSUExampleScenario.node[112].veinsmobility 	stopTime 	899
scalar RSUExampleScenario.node[112].veinsmobility 	minSpeed 	0.25710588553408
scalar RSUExampleScenario.node[112].veinsmobility 	maxSpeed 	18.999597543995
scalar RSUExampleScenario.node[112].veinsmobility 	totalDistance 	3408.9414947412
scalar RSUExampleScenario.node[112].veinsmobility 	totalCO2Emission 	707.58819890188
scalar RSUExampleScenario.node[113].veinsmobility 	startTime 	678.1
scalar RSUExampleScenario.node[113].veinsmobility 	totalTime 	227
scalar RSUExampleScenario.node[113].veinsmobility 	stopTime 	905.2
scalar RSUExampleScenario.node[113].veinsmobility 	minSpeed 	0.24911462581856
scalar RSUExampleScenario.node[113].veinsmobility 	maxSpeed 	18.999902568269
scalar RSUExampleScenario.node[113].veinsmobility 	totalDistance 	3409.777360188
scalar RSUExampleScenario.node[113].veinsmobility 	totalCO2Emission 	709.83719101976
scalar RSUExampleScenario.node[114].veinsmobility 	startTime 	684.1
scalar RSUExampleScenario.node[114].veinsmobility 	totalTime 	227
scalar RSUExampleScenario.node[114].veinsmobility 	stopTime 	911.2
scalar RSUExampleScenario.node[114].veinsmobility 	minSpeed 	0.25130227556615
scalar RSUExampleScenario.node[114].veinsmobility 	maxSpeed 	18.9994966941
scalar RSUExampleScenario.node[114].veinsmobility 	totalDistance 	3409.1183005128
scalar RSUExampleScenario.node[114].veinsmobility 	totalCO2Emission 	704.35303498229
scalar RSUExampleScenario.node[115].veinsmobility 	startTime 	690.1
scalar RSUExampleScenario.node[115].veinsmobility 	totalTime 	226.8
scalar RSUExampleScenario.node[115].veinsmobility 	stopTime 	917
scalar RSUExampleScenario.node[115].veinsmobility 	minSpeed 	0.2558380682026
scalar RSUExampleScenario.node[115].veinsmobility 	maxSpeed 	18.999955824544
scalar RSUExampleScenario.node[115].veinsmobility 	totalDistance 	3409.200659959
scalar RSUExampleScenario.node[115].veinsmobility 	totalCO2Emission 	706.65062795331
scalar RSUExampleScenario.node[116].veinsmobility 	startTime 	696.1
scalar RSUExampleScenario.node[116].veinsmobility 	totalTime 	226.8
scalar RSUExampleScenario.node[116].veinsmobility 	stopTime 	923
scalar RSUExampleScenario.node[116].veinsmobility 	minSpeed 	0.25122090731398
scalar RSUExampleScenario.node[116].veinsmobility 	maxSpeed 	18.999942057787
scalar RSUExampleScenario.node[116].veinsmobility 	totalDistance 	3409.8074846274
scalar RSUExampleScenario.node[116].veinsmobility 	totalCO2Emission 	706.65240663198
scalar RSUExampleScenario.node[117].veinsmobility 	startTime 	702.1
scalar RSUExampleScenario.node[117].veinsmobility 	totalTime 	226.9
scalar RSUExampleScenario.node[117].veinsmobility 	stopTime 	929.1
scalar RSUExampleScenario.node[117].veinsmobility 	minSpeed 	0.24780042835022
scalar RSUExampleScenario.node[117].veinsmobility 	maxSpeed 	18.999987551989
scalar RSUExampleScenario.node[117].veinsmobility 	totalDistance 	3409.5499076484
scalar RSUExampleScenario.node[117].veinsmobility 	totalCO2Emission 	710.08925077782
scalar RSUExampleScenario.node[118].veinsmobility 	startTime 	708.1
scalar RSUExampleScenario.node[118].veinsmobility 	totalTime 	226.7
scalar RSUExampleScenario.node[118].veinsmobility 	stopTime 	934.9
scalar RSUExampleScenario.node[118].veinsmobility 	minSpeed 	0.25399393264996
scalar RSUExampleScenario.node[118].veinsmobility 	maxSpeed 	18.999839986307
scalar RSUExampleScenario.node[118].veinsmobility 	totalDistance 	3409.3600985024
scalar RSUExampleScenario.node[118].veinsmobility 	totalCO2Emission 	705.38941763566
scalar RSUExampleScenario.node[119].veinsmobility 	startTime 	714.1
scalar RSUExampleScenario.node[119].veinsmobility 	totalTime 	226.9
scalar RSUExampleScenario.node[119].veinsmobility 	stopTime 	941.1
scalar RSUExampleScenario.node[119].veinsmobility 	minSpeed 	0.24721821688907
scalar RSUExampleScenario.node[119].veinsmobility 	maxSpeed 	18.999925019273
scalar RSUExampleScenario.node[119].veinsmobility 	totalDistance 	3409.4513188383
scalar RSUExampleScenario.node[119].veinsmobility 	totalCO2Emission 	704.59000049707
scalar RSUExampleScenario.node[120].veinsmobility 	startTime 	720.1
scalar RSUExampleScenario.node[120].veinsmobility 	totalTime 	227
scalar RSUExampleScenario.node[120].veinsmobility 	stopTime 	947.2
scalar RSUExampleScenario.node[120].veinsmobility 	minSpeed 	0.25484502891474
scalar RSUExampleScenario.node[120].veinsmobility 	maxSpeed 	18.999906060165
scalar RSUExampleScenario.node[120].veinsmobility 	totalDistance 	3409.3454670898
scalar RSUExampleScenario.node[120].veinsmobility 	totalCO2Emission 	705.05464429712
scalar RSUExampleScenario.node[121].veinsmobility 	startTime 	726.1
scalar RSUExampleScenario.node[121].veinsmobility 	totalTime 	227.1
scalar RSUExampleScenario.node[121].veinsmobility 	stopTime 	953.3
scalar RSUExampleScenario.node[121].veinsmobility 	minSpeed 	0.25220546629978
scalar RSUExampleScenario.node[121].veinsmobility 	maxSpeed 	18.999547586839
scalar RSUExampleScenario.node[121].veinsmobility 	totalDistance 	3409.4730973357
scalar RSUExampleScenario.node[121].veinsmobility 	totalCO2Emission 	702.71024859398
scalar RSUExampleScenario.node[122].veinsmobility 	startTime 	732.1
scalar RSUExampleScenario.node[122].veinsmobility 	totalTime 	226.9
scalar RSUExampleScenario.node[122].veinsmobility 	stopTime 	959.1
scalar RSUExampleScenario.node[122].veinsmobility 	minSpeed 	0.24774140275829
scalar RSUExampleScenario.node[122].veinsmobility 	maxSpeed 	18.999613025039
scalar RSUExampleScenario.node[122].veinsmobility 	totalDistance 	3409.2461536098
scalar RSUExampleScenario.node[122].veinsmobility 	totalCO2Emission 	706.74591457353
scalar RSUExampleScenario.node[123].veinsmobility 	startTime 	738.1
scalar RSUExampleScenario.node[123].veinsmobility 	totalTime 	227
scalar RSUExampleScenario.node[123].veinsmobility 	stopTime 	965.2
scalar RSUExampleScenario.node[123].veinsmobility 	minSpeed 	0.24992419926776
scalar RSUExampleScenario.node[123].veinsmobility 	maxSpeed 	18.999653571758
scalar RSUExampleScenario.node[123].veinsmobility 	totalDistance 	3409.5789680815
scalar RSUExampleScenario.node[123].veinsmobility 	totalCO2Emission 	706.08702720345
scalar RSUExampleScenario.node[124].veinsmobility 	startTime 	744.1
scalar RSUExampleScenario.node[124].veinsmobility 	totalTime 	226.8
scalar RSUExampleScenario.node[124].veinsmobility 	stopTime 	971
scalar RSUExampleScenario.node[124].veinsmobility 	minSpeed 	0.25384370098775
scalar RSUExampleScenario.node[124].veinsmobility 	maxSpeed 	18.99978582399
scalar RSUExampleScenario.node[124].veinsmobility 	totalDistance 	3409.8783771722
scalar RSUExampleScenario.node[124].veinsmobility 	totalCO2Emission 	709.40381325943
scalar RSUExampleScenario.node[125].veinsmobility 	startTime 	750.1
scalar RSUExampleScenario.node[125].veinsmobility 	totalTime 	226.8
scalar RSUExampleScenario.node[125].veinsmobility 	stopTime 	977
scalar RSUExampleScenario.node[125].veinsmobility 	minSpeed 	0.25198315580213
scalar RSUExampleScenario.node[125].veinsmobility 	maxSpeed 	18.999949492996
scalar RSUExampleScenario.node[125].veinsmobility 	totalDistance 	3409.1591263262
scalar RSUExampleScenario.node[125].veinsmobility 	totalCO2Emission 	706.90465667822
scalar RSUExampleScenario.node[126].veinsmobility 	startTime 	756.1
scalar RSUExampleScenario.node[126].veinsmobility 	totalTime 	226.9
scalar RSUExampleScenario.node[126].veinsmobility 	stopTime 	983.1
scalar RSUExampleScenario.node[126].veinsmobility 	minSpeed 	0.25955269350507
scalar RSUExampleScenario.node[126].veinsmobility 	maxSpeed 	18.999555848485
scalar RSUExampleScenario.node[126].veinsmobility 	totalDistance 	3409.5077110876
scalar RSUExampleScenario.node[126].veinsmobility 	totalCO2Emission 	704.17281345184
scalar RSUExampleScenario.node[127].veinsmobility 	startTime 	762.1
scalar RSUExampleScenario.node[127].veinsmobility 	totalTime 	226.8
scalar RSUExampleScenario.node[127].veinsmobility 	stopTime 	989
scalar RSUExampleScenario.node[127].veinsmobility 	minSpeed 	0.25531317926594
scalar RSUExampleScenario.node[127].veinsmobility 	maxSpeed 	18.999744607955
scalar RSUExampleScenario.node[127].veinsmobility 	totalDistance 	3409.2243883023
scalar RSUExampleScenario.node[127].veinsmobility 	totalCO2Emission 	702.88817208166
scalar RSUExampleScenario.node[128].veinsmobility 	startTime 	768.1
scalar RSUExampleScenario.node[128].veinsmobility 	totalTime 	226.8
scalar RSUExampleScenario.node[128].veinsmobility 	stopTime 	995
scalar RSUExampleScenario.node[128].veinsmobility 	minSpeed 	0.25520414652466
scalar RSUExampleScenario.node[128].veinsmobility 	maxSpeed 	18.999780456084
scalar RSUExampleScenario.node[128].veinsmobility 	totalDistance 	3409.2426931876
scalar RSUExampleScenario.node[128].veinsmobility 	totalCO2Emission 	707.54363247138
scalar RSUExampleScenario.node[129].veinsmobility 	startTime 	774.1
scalar RSUExampleScenario.node[129].veinsmobility 	totalTime 	227.2
scalar RSUExampleScenario.node[129].veinsmobility 	stopTime 	1001.4
scalar RSUExampleScenario.node[129].veinsmobility 	minSpeed 	0.24856987948646
scalar RSUExampleScenario.node[129].veinsmobility 	maxSpeed 	18.999352346661
scalar RSUExampleScenario.node[129].veinsmobility 	totalDistance 	3409.8848716463
scalar RSUExampleScenario.node[129].veinsmobility 	totalCO2Emission 	706.20940224366
scalar RSUExampleScenario.node[130].veinsmobility 	startTime 	780.1
scalar RSUExampleScenario.node[130].veinsmobility 	totalTime 	227.1
scalar RSUExampleScenario.node[130].veinsmobility 	stopTime 	1007.3
scalar RSUExampleScenario.node[130].veinsmobility 	minSpeed 	0.25489992256369
scalar RSUExampleScenario.node[130].veinsmobility 	maxSpeed 	18.999552535533
scalar RSUExampleScenario.node[130].veinsmobility 	totalDistance 	3409.9429942147
scalar RSUExampleScenario.node[130].veinsmobility 	totalCO2Emission 	706.34755458938
scalar RSUExampleScenario.node[131].veinsmobility 	startTime 	786.1
scalar RSUExampleScenario.node[131].veinsmobility 	totalTime 	226.9
scalar RSUExampleScenario.node[131].veinsmobility 	stopTime 	1013.1
scalar RSUExampleScenario.node[131].veinsmobility 	minSpeed 	0.25210344889923
scalar RSUExampleScenario.node[131].veinsmobility 	maxSpeed 	18.999367411097
scalar RSUExampleScenario.node[131].veinsmobility 	totalDistance 	3409.4601650156
scalar RSUExampleScenario.node[131].veinsmobility 	totalCO2Emission 	705.93060569841
scalar RSUExampleScenario.node[132].veinsmobility 	startTime 	792.1
scalar RSUExampleScenario.node[132].veinsmobility 	totalTime 	227.1
scalar RSUExampleScenario.node[132].veinsmobility 	stopTime 	1019.3
scalar RSUExampleScenario.node[132].veinsmobility 	minSpeed 	0.24874183863937
scalar RSUExampleScenario.node[132].veinsmobility 	maxSpeed 	18.999866061115
scalar RSUExampleScenario.node[132].veinsmobility 	totalDistance 	3409.547898243
scalar RSUExampleScenario.node[132].veinsmobility 	totalCO2Emission 	706.61196445961
scalar RSUExampleScenario.node[133].veinsmobility 	startTime 	798.1
scalar RSUExampleScenario.node[133].veinsmobility 	totalTime 	226.7
scalar RSUExampleScenario.node[133].veinsmobility 	stopTime 	1024.9
scalar RSUExampleScenario.node[133].veinsmobility 	minSpeed 	0.25438045497704
scalar RSUExampleScenario.node[133].veinsmobility 	maxSpeed 	18.999886665258
scalar RSUExampleScenario.node[133].veinsmobility 	totalDistance 	3409.5156447931
scalar RSUExampleScenario.node[133].veinsmobility 	totalCO2Emission 	709.93685278139
scalar RSUExampleScenario.node[134].veinsmobility 	startTime 	804.1
scalar RSUExampleScenario.node[134].veinsmobility 	totalTime 	226.6
scalar RSUExampleScenario.node[134].veinsmobility 	stopTime 	1030.8
scalar RSUExampleScenario.node[134].veinsmobility 	minSpeed 	0.25881266236771
scalar RSUExampleScenario.node[134].veinsmobility 	maxSpeed 	18.999934791382
scalar RSUExampleScenario.node[134].veinsmobility 	totalDistance 	3409.6449185017
scalar RSUExampleScenario.node[134].veinsmobility 	totalCO2Emission 	706.82037945077
scalar RSUExampleScenario.node[135].veinsmobility 	startTime 	810.1
scalar RSUExampleScenario.node[135].veinsmobility 	totalTime 	226.4
scalar RSUExampleScenario.node[135].veinsmobility 	stopTime 	1036.6
scalar RSUExampleScenario.node[135].veinsmobility 	minSpeed 	0.25855776251666
scalar RSUExampleScenario.node[135].veinsmobility 	maxSpeed 	18.999863503561
scalar RSUExampleScenario.node[135].veinsmobility 	totalDistance 	3409.2720432346
scalar RSUExampleScenario.node[135].veinsmobility 	totalCO2Emission 	709.32958960571
scalar RSUExampleScenario.node[136].veinsmobility 	startTime 	816.1
scalar RSUExampleScenario.node[136].veinsmobility 	totalTime 	226.8
scalar RSUExampleScenario.node[136].veinsmobility 	stopTime 	1043
scalar RSUExampleScenario.node[136].veinsmobility 	minSpeed 	0.25060534953047
scalar RSUExampleScenario.node[136].veinsmobility 	maxSpeed 	18.999658897652
scalar RSUExampleScenario.node[136].veinsmobility 	totalDistance 	3409.5809522084
scalar RSUExampleScenario.node[136].veinsmobility 	totalCO2Emission 	706.83701434529
scalar RSUExampleScenario.node[137].veinsmobility 	startTime 	822.1
scalar RSUExampleScenario.node[137].veinsmobility 	totalTime 	227.1
scalar RSUExampleScenario.node[137].veinsmobility 	stopTime 	1049.3
scalar RSUExampleScenario.node[137].veinsmobility 	minSpeed 	0.24768273711624
scalar RSUExampleScenario.node[137].veinsmobility 	maxSpeed 	18.999347768296
scalar RSUExampleScenario.node[137].veinsmobility 	totalDistance 	3409.2271583318
scalar RSUExampleScenario.node[137].veinsmobility 	totalCO2Emission 	705.89689599003
scalar RSUExampleScenario.node[138].veinsmobility 	startTime 	828.1
scalar RSUExampleScenario.node[138].veinsmobility 	totalTime 	226.8
scalar RSUExampleScenario.node[138].veinsmobility 	stopTime 	1055
scalar RSUExampleScenario.node[138].veinsmobility 	minSpeed 	0.2546423914684
scalar RSUExampleScenario.node[138].veinsmobility 	maxSpeed 	18.999847386132
scalar RSUExampleScenario.node[138].veinsmobility 	totalDistance 	3409.6470659674
scalar RSUExampleScenario.node[138].veinsmobility 	totalCO2Emission 	706.14158248099
scalar RSUExampleScenario.node[139].veinsmobility 	startTime 	834.1
scalar RSUExampleScenario.node[139].veinsmobility 	totalTime 	226.9
scalar RSUExampleScenario.node[139].veinsmobility 	stopTime 	1061.1
scalar RSUExampleScenario.node[139].veinsmobility 	minSpeed 	0.25195208136435
scalar RSUExampleScenario.node[139].veinsmobility 	maxSpeed 	18.999946674623
scalar RSUExampleScenario.node[139].veinsmobility 	totalDistance 	3409.3308440452
scalar RSUExampleScenario.node[139].veinsmobility 	totalCO2Emission 	709.9522226082
scalar RSUExampleScenario.node[140].veinsmobility 	startTime 	840.1
scalar RSUExampleScenario.node[140].veinsmobility 	totalTime 	226.7
scalar RSUExampleScenario.node[140].veinsmobility 	stopTime 	1066.9
scalar RSUExampleScenario.node[140].veinsmobility 	minSpeed 	0.25129968003812
scalar RSUExampleScenario.node[140].veinsmobility 	maxSpeed 	18.999963041248
scalar RSUExampleScenario.node[140].veinsmobility 	totalDistance 	3409.2002667944
scalar RSUExampleScenario.node[140].veinsmobility 	totalCO2Emission 	707.61269057541
scalar RSUExampleScenario.node[141].veinsmobility 	startTime 	846.1
scalar RSUExampleScenario.node[141].veinsmobility 	totalTime 	226.9
scalar RSUExampleScenario.node[141].veinsmobility 	stopTime 	1073.1
scalar RSUExampleScenario.node[141].veinsmobility 	minSpeed 	0.2592689722802
scalar RSUExampleScenario.node[141].veinsmobility 	maxSpeed 	18.999729758028
scalar RSUExampleScenario.node[141].veinsmobility 	totalDistance 	3409.2417105639
scalar RSUExampleScenario.node[141].veinsmobility 	totalCO2Emission 	708.237683647
scalar RSUExampleScenario.node[142].veinsmobility 	startTime 	852.1
scalar RSUExampleScenario.node[142].veinsmobility 	totalTime 	226.6
scalar RSUExampleScenario.node[142].veinsmobility 	stopTime 	1078.8
scalar RSUExampleScenario.node[142].veinsmobility 	minSpeed 	0.25927624098212
scalar RSUExampleScenario.node[142].veinsmobility 	maxSpeed 	18.999348703546
scalar RSUExampleScenario.node[142].veinsmobility 	totalDistance 	3409.8054824351
scalar RSUExampleScenario.node[142].veinsmobility 	totalCO2Emission 	704.67493421227
scalar RSUExampleScenario.node[143].veinsmobility 	startTime 	858.1
scalar RSUExampleScenario.node[143].veinsmobility 	totalTime 	226.9
scalar RSUExampleScenario.node[143].veinsmobility 	stopTime 	1085.1
scalar RSUExampleScenario.node[143].veinsmobility 	minSpeed 	0.24953980816086
scalar RSUExampleScenario.node[143].veinsmobility 	maxSpeed 	18.999749053293
scalar RSUExampleScenario.node[143].veinsmobility 	totalDistance 	3409.447415972
scalar RSUExampleScenario.node[143].veinsmobility 	totalCO2Emission 	708.30447487682
scalar RSUExampleScenario.node[144].veinsmobility 	startTime 	864.1
scalar RSUExampleScenario.node[144].veinsmobility 	totalTime 	226.9
scalar RSUExampleScenario.node[144].veinsmobility 	stopTime 	1091.1
scalar RSUExampleScenario.node[144].veinsmobility 	minSpeed 	0.25320173302642
scalar RSUExampleScenario.node[144].veinsmobility 	maxSpeed 	18.999997736863
scalar RSUExampleScenario.node[144].veinsmobility 	totalDistance 	3409.8119542211
scalar RSUExampleScenario.node[144].veinsmobility 	totalCO2Emission 	705.01504396686
scalar RSUExampleScenario.node[145].veinsmobility 	startTime 	870.1
scalar RSUExampleScenario.node[145].veinsmobility 	totalTime 	227
scalar RSUExampleScenario.node[145].veinsmobility 	stopTime 	1097.2
scalar RSUExampleScenario.node[145].veinsmobility 	minSpeed 	0.25009979684721
scalar RSUExampleScenario.node[145].veinsmobility 	maxSpeed 	18.999760170088
scalar RSUExampleScenario.node[145].veinsmobility 	totalDistance 	3409.6892182835
scalar RSUExampleScenario.node[145].veinsmobility 	totalCO2Emission 	701.79616565855
scalar RSUExampleScenario.node[146].veinsmobility 	startTime 	876.1
scalar RSUExampleScenario.node[146].veinsmobility 	totalTime 	226.9
scalar RSUExampleScenario.node[146].veinsmobility 	stopTime 	1103.1
scalar RSUExampleScenario.node[146].veinsmobility 	minSpeed 	0.25670607578615
scalar RSUExampleScenario.node[146].veinsmobility 	maxSpeed 	18.999924003722
scalar RSUExampleScenario.node[146].veinsmobility 	totalDistance 	3409.5021577474
scalar RSUExampleScenario.node[146].veinsmobility 	totalCO2Emission 	710.08310713253
scalar RSUExampleScenario.node[147].veinsmobility 	startTime 	882.1
scalar RSUExampleScenario.node[147].veinsmobility 	totalTime 	227
scalar RSUExampleScenario.node[147].veinsmobility 	stopTime 	1109.2
scalar RSUExampleScenario.node[147].veinsmobility 	minSpeed 	0.25391512594698
scalar RSUExampleScenario.node[147].veinsmobility 	maxSpeed 	18.999876029755
scalar RSUExampleScenario.node[147].veinsmobility 	totalDistance 	3409.2230061255
scalar RSUExampleScenario.node[147].veinsmobility 	totalCO2Emission 	709.89153677567
scalar RSUExampleScenario.node[148].veinsmobility 	startTime 	888.1
scalar RSUExampleScenario.node[148].veinsmobility 	totalTime 	226.8
scalar RSUExampleScenario.node[148].veinsmobility 	stopTime 	1115
scalar RSUExampleScenario.node[148].veinsmobility 	minSpeed 	0.24887270256947
scalar RSUExampleScenario.node[148].veinsmobility 	maxSpeed 	18.999939066705
scalar RSUExampleScenario.node[148].veinsmobility 	totalDistance 	3409.3748132455
scalar RSUExampleScenario.node[148].veinsmobility 	totalCO2Emission 	704.16461964306
scalar RSUExampleScenario.node[149].veinsmobility 	startTime 	894.1
scalar RSUExampleScenario.node[149].veinsmobility 	totalTime 	226.8
scalar RSUExampleScenario.node[149].veinsmobility 	stopTime 	1121
scalar RSUExampleScenario.node[149].veinsmobility 	minSpeed 	0.25703485830827
scalar RSUExampleScenario.node[149].veinsmobility 	maxSpeed 	18.999975603642
scalar RSUExampleScenario.node[149].veinsmobility 	totalDistance 	3409.4570781953
scalar RSUExampleScenario.node[149].veinsmobility 	totalCO2Emission 	706.95015032832
scalar RSUExampleScenario.node[150].veinsmobility 	startTime 	900.1
scalar RSUExampleScenario.node[150].veinsmobility 	totalTime 	226.9
scalar RSUExampleScenario.node[150].veinsmobility 	stopTime 	1127.1
scalar RSUExampleScenario.node[150].veinsmobility 	minSpeed 	0.25600809683022
scalar RSUExampleScenario.node[150].veinsmobility 	maxSpeed 	18.999760655011
scalar RSUExampleScenario.node[150].veinsmobility 	totalDistance 	3409.2764949448
scalar RSUExampleScenario.node[150].veinsmobility 	totalCO2Emission 	705.3232784554
scalar RSUExampleScenario.node[151].veinsmobility 	startTime 	906.1
scalar RSUExampleScenario.node[151].veinsmobility 	totalTime 	227.1
scalar RSUExampleScenario.node[151].veinsmobility 	stopTime 	1133.3
scalar RSUExampleScenario.node[151].veinsmobility 	minSpeed 	0.25683694527647
scalar RSUExampleScenario.node[151].veinsmobility 	maxSpeed 	18.999943288302
scalar RSUExampleScenario.node[151].veinsmobility 	totalDistance 	3409.3393571729
scalar RSUExampleScenario.node[151].veinsmobility 	totalCO2Emission 	708.16880097027
scalar RSUExampleScenario.node[152].veinsmobility 	startTime 	912.1
scalar RSUExampleScenario.node[152].veinsmobility 	totalTime 	226.9
scalar RSUExampleScenario.node[152].veinsmobility 	stopTime 	1139.1
scalar RSUExampleScenario.node[152].veinsmobility 	minSpeed 	0.24737264238019
scalar RSUExampleScenario.node[152].veinsmobility 	maxSpeed 	18.999934346988
scalar RSUExampleScenario.node[152].veinsmobility 	totalDistance 	3409.5392344034
scalar RSUExampleScenario.node[152].veinsmobility 	totalCO2Emission 	704.45232205171
[...]
scalar RSUExampleScenario.node[262].veinsmobility 	startTime 	1572.1
scalar RSUExampleScenario.node[262].veinsmobility 	totalTime 	227
scalar RSUExampleScenario.node[262].veinsmobility 	stopTime 	1799.2
scalar RSUExampleScenario.node[262].veinsmobility 	minSpeed 	0.25089034114499
scalar RSUExampleScenario.node[262].veinsmobility 	maxSpeed 	18.999766069863
scalar RSUExampleScenario.node[262].veinsmobility 	totalDistance 	3409.3766343307
scalar RSUExampleScenario.node[262].veinsmobility 	totalCO2Emission 	708.68454151446
scalar RSUExampleScenario.node[263].veinsmobility 	startTime 	1578.1
scalar RSUExampleScenario.node[263].veinsmobility 	totalTime 	226.8
scalar RSUExampleScenario.node[263].veinsmobility 	stopTime 	1805
scalar RSUExampleScenario.node[263].veinsmobility 	minSpeed 	0.25529212823743
scalar RSUExampleScenario.node[263].veinsmobility 	maxSpeed 	18.999964345647
scalar RSUExampleScenario.node[263].veinsmobility 	totalDistance 	3409.2875051523
scalar RSUExampleScenario.node[263].veinsmobility 	totalCO2Emission 	705.97054092032
scalar RSUExampleScenario.node[264].veinsmobility 	startTime 	1584.1
scalar RSUExampleScenario.node[264].veinsmobility 	totalTime 	226.6
scalar RSUExampleScenario.node[264].veinsmobility 	stopTime 	1810.8
scalar RSUExampleScenario.node[264].veinsmobility 	minSpeed 	0.24857556384103
scalar RSUExampleScenario.node[264].veinsmobility 	maxSpeed 	18.999942638206
scalar RSUExampleScenario.node[264].veinsmobility 	totalDistance 	3409.4810522897
scalar RSUExampleScenario.node[264].veinsmobility 	totalCO2Emission 	705.76771590442
scalar RSUExampleScenario.node[265].veinsmobility 	startTime 	1590.1
scalar RSUExampleScenario.node[265].veinsmobility 	totalTime 	226.9
scalar RSUExampleScenario.node[265].veinsmobility 	stopTime 	1817.1
scalar RSUExampleScenario.node[265].veinsmobility 	minSpeed 	0.24809012998384
scalar RSUExampleScenario.node[265].veinsmobility 	maxSpeed 	18.999996766653
scalar RSUExampleScenario.node[265].veinsmobility 	totalDistance 	3409.5187532985
scalar RSUExampleScenario.node[265].veinsmobility 	totalCO2Emission 	706.18140900161
scalar RSUExampleScenario.node[266].veinsmobility 	startTime 	1596.1
scalar RSUExampleScenario.node[266].veinsmobility 	totalTime 	226.8
scalar RSUExampleScenario.node[266].veinsmobility 	stopTime 	1823
scalar RSUExampleScenario.node[266].veinsmobility 	minSpeed 	0.2476042684128
scalar RSUExampleScenario.node[266].veinsmobility 	maxSpeed 	18.99994433403
scalar RSUExampleScenario.node[266].veinsmobility 	totalDistance 	3409.6169973032
scalar RSUExampleScenario.node[266].veinsmobility 	totalCO2Emission 	705.5180304819
scalar RSUExampleScenario.node[267].veinsmobility 	startTime 	1602.1
scalar RSUExampleScenario.node[267].veinsmobility 	totalTime 	227.1
scalar RSUExampleScenario.node[267].veinsmobility 	stopTime 	1829.3
scalar RSUExampleScenario.node[267].veinsmobility 	minSpeed 	0.25278618942667
scalar RSUExampleScenario.node[267].veinsmobility 	maxSpeed 	18.999833706729
scalar RSUExampleScenario.node[267].veinsmobility 	totalDistance 	3409.3650208462
scalar RSUExampleScenario.node[267].veinsmobility 	totalCO2Emission 	709.62105300921
scalar RSUExampleScenario.node[268].veinsmobility 	startTime 	1608.1
scalar RSUExampleScenario.node[268].veinsmobility 	totalTime 	227
scalar RSUExampleScenario.node[268].veinsmobility 	stopTime 	1835.2
scalar RSUExampleScenario.node[268].veinsmobility 	minSpeed 	0.25009065789264
scalar RSUExampleScenario.node[268].veinsmobility 	maxSpeed 	18.999123375781
scalar RSUExampleScenario.node[268].veinsmobility 	totalDistance 	3409.834819602
scalar RSUExampleScenario.node[268].veinsmobility 	totalCO2Emission 	711.07515152883
scalar RSUExampleScenario.node[269].veinsmobility 	startTime 	1614.1
scalar RSUExampleScenario.node[269].veinsmobility 	totalTime 	227.2
scalar RSUExampleScenario.node[269].veinsmobility 	stopTime 	1841.4
scalar RSUExampleScenario.node[269].veinsmobility 	minSpeed 	0.25404205932817
scalar RSUExampleScenario.node[269].veinsmobility 	maxSpeed 	18.999882876282
scalar RSUExampleScenario.node[269].veinsmobility 	totalDistance 	3409.7835365003
scalar RSUExampleScenario.node[269].veinsmobility 	totalCO2Emission 	703.55290722198
scalar RSUExampleScenario.node[270].veinsmobility 	startTime 	1620.1
scalar RSUExampleScenario.node[270].veinsmobility 	totalTime 	226.9
scalar RSUExampleScenario.node[270].veinsmobility 	stopTime 	1847.1
scalar RSUExampleScenario.node[270].veinsmobility 	minSpeed 	0.25946361022233
scalar RSUExampleScenario.node[270].veinsmobility 	maxSpeed 	18.999868028867
scalar RSUExampleScenario.node[270].veinsmobility 	totalDistance 	3409.2657852748
scalar RSUExampleScenario.node[270].veinsmobility 	totalCO2Emission 	709.19814991587
scalar RSUExampleScenario.node[271].veinsmobility 	startTime 	1626.1
scalar RSUExampleScenario.node[271].veinsmobility 	totalTime 	227
scalar RSUExampleScenario.node[271].veinsmobility 	stopTime 	1853.2
scalar RSUExampleScenario.node[271].veinsmobility 	minSpeed 	0.25061533635785
scalar RSUExampleScenario.node[271].veinsmobility 	maxSpeed 	18.9997007093
scalar RSUExampleScenario.node[271].veinsmobility 	totalDistance 	3409.2468699164
scalar RSUExampleScenario.node[271].veinsmobility 	totalCO2Emission 	710.65515820962
scalar RSUExampleScenario.node[272].veinsmobility 	startTime 	1632.1
scalar RSUExampleScenario.node[272].veinsmobility 	totalTime 	226.9
scalar RSUExampleScenario.node[272].veinsmobility 	stopTime 	1859.1
scalar RSUExampleScenario.node[272].veinsmobility 	minSpeed 	0.24705121627357
scalar RSUExampleScenario.node[272].veinsmobility 	maxSpeed 	18.999506532496
scalar RSUExampleScenario.node[272].veinsmobility 	totalDistance 	3409.5201477209
scalar RSUExampleScenario.node[272].veinsmobility 	totalCO2Emission 	705.19083624575
scalar RSUExampleScenario.node[273].veinsmobility 	startTime 	1638.1
scalar RSUExampleScenario.node[273].veinsmobility 	totalTime 	227.1
scalar RSUExampleScenario.node[273].veinsmobility 	stopTime 	1865.3
scalar RSUExampleScenario.node[273].veinsmobility 	minSpeed 	0.25389062181977
scalar RSUExampleScenario.node[273].veinsmobility 	maxSpeed 	18.999997816014
scalar RSUExampleScenario.node[273].veinsmobility 	totalDistance 	3409.358143939
scalar RSUExampleScenario.node[273].veinsmobility 	totalCO2Emission 	708.61329780416
scalar RSUExampleScenario.node[274].veinsmobility 	startTime 	1644.1
scalar RSUExampleScenario.node[274].veinsmobility 	totalTime 	226.7
scalar RSUExampleScenario.node[274].veinsmobility 	stopTime 	1870.9
scalar RSUExampleScenario.node[274].veinsmobility 	minSpeed 	0.24950304971961
scalar RSUExampleScenario.node[274].veinsmobility 	maxSpeed 	18.999758573815
scalar RSUExampleScenario.node[274].veinsmobility 	totalDistance 	3409.7069987086
scalar RSUExampleScenario.node[274].veinsmobility 	totalCO2Emission 	708.40693699482
scalar RSUExampleScenario.node[275].veinsmobility 	startTime 	1650.1
scalar RSUExampleScenario.node[275].veinsmobility 	totalTime 	226.9
scalar RSUExampleScenario.node[275].veinsmobility 	stopTime 	1877.1
scalar RSUExampleScenario.node[275].veinsmobility 	minSpeed 	0.25671429607715
scalar RSUExampleScenario.node[275].veinsmobility 	maxSpeed 	18.999146454453
scalar RSUExampleScenario.node[275].veinsmobility 	totalDistance 	3409.4761540496
scalar RSUExampleScenario.node[275].veinsmobility 	totalCO2Emission 	707.58286763248
scalar RSUExampleScenario.node[276].veinsmobility 	startTime 	1656.1
scalar RSUExampleScenario.node[276].veinsmobility 	totalTime 	227.1
scalar RSUExampleScenario.node[276].veinsmobility 	stopTime 	1883.3
scalar RSUExampleScenario.node[276].veinsmobility 	minSpeed 	0.25443300626846
scalar RSUExampleScenario.node[276].veinsmobility 	maxSpeed 	18.999893067058
scalar RSUExampleScenario.node[276].veinsmobility 	totalDistance 	3409.3485737918
scalar RSUExampleScenario.node[276].veinsmobility 	totalCO2Emission 	706.02036233244
scalar RSUExampleScenario.node[277].veinsmobility 	startTime 	1662.1
scalar RSUExampleScenario.node[277].veinsmobility 	totalTime 	227.1
scalar RSUExampleScenario.node[277].veinsmobility 	stopTime 	1889.3
scalar RSUExampleScenario.node[277].veinsmobility 	minSpeed 	0.2559102008515
scalar RSUExampleScenario.node[277].veinsmobility 	maxSpeed 	18.999830051658
scalar RSUExampleScenario.node[277].veinsmobility 	totalDistance 	3409.4141033255
scalar RSUExampleScenario.node[277].veinsmobility 	totalCO2Emission 	708.16920520054
scalar RSUExampleScenario.node[278].veinsmobility 	startTime 	1668.1
scalar RSUExampleScenario.node[278].veinsmobility 	totalTime 	226.9
scalar RSUExampleScenario.node[278].veinsmobility 	stopTime 	1895.1
scalar RSUExampleScenario.node[278].veinsmobility 	minSpeed 	0.25218218843755
scalar RSUExampleScenario.node[278].veinsmobility 	maxSpeed 	18.999958672791
scalar RSUExampleScenario.node[278].veinsmobility 	totalDistance 	3409.3292426073
scalar RSUExampleScenario.node[278].veinsmobility 	totalCO2Emission 	706.22659078041
scalar RSUExampleScenario.node[279].veinsmobility 	startTime 	1674.1
scalar RSUExampleScenario.node[279].veinsmobility 	totalTime 	226.8
scalar RSUExampleScenario.node[279].veinsmobility 	stopTime 	1901
scalar RSUExampleScenario.node[279].veinsmobility 	minSpeed 	0.25958591524139
scalar RSUExampleScenario.node[279].veinsmobility 	maxSpeed 	18.999841310561
scalar RSUExampleScenario.node[279].veinsmobility 	totalDistance 	3409.3593117966
scalar RSUExampleScenario.node[279].veinsmobility 	totalCO2Emission 	704.90265048669
scalar RSUExampleScenario.node[280].veinsmobility 	startTime 	1680.1
scalar RSUExampleScenario.node[280].veinsmobility 	totalTime 	226.9
scalar RSUExampleScenario.node[280].veinsmobility 	stopTime 	1907.1
scalar RSUExampleScenario.node[280].veinsmobility 	minSpeed 	0.25384018184734
scalar RSUExampleScenario.node[280].veinsmobility 	maxSpeed 	18.999851652465
scalar RSUExampleScenario.node[280].veinsmobility 	totalDistance 	3409.476022477
scalar RSUExampleScenario.node[280].veinsmobility 	totalCO2Emission 	708.71634558396
scalar RSUExampleScenario.node[281].veinsmobility 	startTime 	1686.1
scalar RSUExampleScenario.node[281].veinsmobility 	totalTime 	226.9
scalar RSUExampleScenario.node[281].veinsmobility 	stopTime 	1913.1
scalar RSUExampleScenario.node[281].veinsmobility 	minSpeed 	0.25319451142452
scalar RSUExampleScenario.node[281].veinsmobility 	maxSpeed 	18.99964995546
scalar RSUExampleScenario.node[281].veinsmobility 	totalDistance 	3409.2713632956
scalar RSUExampleScenario.node[281].veinsmobility 	totalCO2Emission 	707.42588490266
scalar RSUExampleScenario.node[282].veinsmobility 	startTime 	1692.1
scalar RSUExampleScenario.node[282].veinsmobility 	totalTime 	226.9
scalar RSUExampleScenario.node[282].veinsmobility 	stopTime 	1919.1
scalar RSUExampleScenario.node[282].veinsmobility 	minSpeed 	0.25856864884193
scalar RSUExampleScenario.node[282].veinsmobility 	maxSpeed 	18.999954020663
scalar RSUExampleScenario.node[282].veinsmobility 	totalDistance 	3409.3609365168
scalar RSUExampleScenario.node[282].veinsmobility 	totalCO2Emission 	706.90945673001
scalar RSUExampleScenario.node[283].veinsmobility 	startTime 	1698.1
scalar RSUExampleScenario.node[283].veinsmobility 	totalTime 	227
scalar RSUExampleScenario.node[283].veinsmobility 	stopTime 	1925.2
scalar RSUExampleScenario.node[283].veinsmobility 	minSpeed 	0.25448672860092
scalar RSUExampleScenario.node[283].veinsmobility 	maxSpeed 	18.999902987541
scalar RSUExampleScenario.node[283].veinsmobility 	totalDistance 	3409.5766602739
scalar RSUExampleScenario.node[283].veinsmobility 	totalCO2Emission 	707.9091107531
scalar RSUExampleScenario.node[284].veinsmobility 	startTime 	1704.1
scalar RSUExampleScenario.node[284].veinsmobility 	totalTime 	226.9
scalar RSUExampleScenario.node[284].veinsmobility 	stopTime 	1931.1
scalar RSUExampleScenario.node[284].veinsmobility 	minSpeed 	0.24762047549244
scalar RSUExampleScenario.node[284].veinsmobility 	maxSpeed 	18.99961022849
scalar RSUExampleScenario.node[284].veinsmobility 	totalDistance 	3409.4386926949
scalar RSUExampleScenario.node[284].veinsmobility 	totalCO2Emission 	708.00620631598
scalar RSUExampleScenario.node[285].veinsmobility 	startTime 	1710.1
scalar RSUExampleScenario.node[285].veinsmobility 	totalTime 	226.9
scalar RSUExampleScenario.node[285].veinsmobility 	stopTime 	1937.1
scalar RSUExampleScenario.node[285].veinsmobility 	minSpeed 	0.25570739015122
scalar RSUExampleScenario.node[285].veinsmobility 	maxSpeed 	18.999969461451
scalar RSUExampleScenario.node[285].veinsmobility 	totalDistance 	3409.3969143044
scalar RSUExampleScenario.node[285].veinsmobility 	totalCO2Emission 	707.60792657646
scalar RSUExampleScenario.node[286].veinsmobility 	startTime 	1716.1
scalar RSUExampleScenario.node[286].veinsmobility 	totalTime 	227.1
scalar RSUExampleScenario.node[286].veinsmobility 	stopTime 	1943.3
scalar RSUExampleScenario.node[286].veinsmobility 	minSpeed 	0.25232137703476
scalar RSUExampleScenario.node[286].veinsmobility 	maxSpeed 	18.999809722349
scalar RSUExampleScenario.node[286].veinsmobility 	totalDistance 	3409.5071700549
scalar RSUExampleScenario.node[286].veinsmobility 	totalCO2Emission 	711.13424333659
scalar RSUExampleScenario.node[287].veinsmobility 	startTime 	1722.1
scalar RSUExampleScenario.node[287].veinsmobility 	totalTime 	227
scalar RSUExampleScenario.node[287].veinsmobility 	stopTime 	1949.2
scalar RSUExampleScenario.node[287].veinsmobility 	minSpeed 	0.251442081491
scalar RSUExampleScenario.node[287].veinsmobility 	maxSpeed 	18.999946341494
scalar RSUExampleScenario.node[287].veinsmobility 	totalDistance 	3409.8793558423
scalar RSUExampleScenario.node[287].veinsmobility 	totalCO2Emission 	708.53276322854
scalar RSUExampleScenario.node[288].veinsmobility 	startTime 	1728.1
scalar RSUExampleScenario.node[288].veinsmobility 	totalTime 	226.8
scalar RSUExampleScenario.node[288].veinsmobility 	stopTime 	1955
scalar RSUExampleScenario.node[288].veinsmobility 	minSpeed 	0.25851877787733
scalar RSUExampleScenario.node[288].veinsmobility 	maxSpeed 	18.999997463361
scalar RSUExampleScenario.node[288].veinsmobility 	totalDistance 	3409.2931712514
scalar RSUExampleScenario.node[288].veinsmobility 	totalCO2Emission 	705.96340391988
scalar RSUExampleScenario.node[289].veinsmobility 	startTime 	1734.1
scalar RSUExampleScenario.node[289].veinsmobility 	totalTime 	227
scalar RSUExampleScenario.node[289].veinsmobility 	stopTime 	1961.2
scalar RSUExampleScenario.node[289].veinsmobility 	minSpeed 	0.25931497525075
scalar RSUExampleScenario.node[289].veinsmobility 	maxSpeed 	18.99996095306
scalar RSUExampleScenario.node[289].veinsmobility 	totalDistance 	3409.5754030307
scalar RSUExampleScenario.node[289].veinsmobility 	totalCO2Emission 	708.35385795779
scalar RSUExampleScenario.node[290].veinsmobility 	startTime 	1740.1
scalar RSUExampleScenario.node[290].veinsmobility 	totalTime 	226.6
scalar RSUExampleScenario.node[290].veinsmobility 	stopTime 	1966.8
scalar RSUExampleScenario.node[290].veinsmobility 	minSpeed 	0.25865327725862
scalar RSUExampleScenario.node[290].veinsmobility 	maxSpeed 	18.999913056246
scalar RSUExampleScenario.node[290].veinsmobility 	totalDistance 	3409.7499610572
scalar RSUExampleScenario.node[290].veinsmobility 	totalCO2Emission 	708.06130787777
scalar RSUExampleScenario.node[291].veinsmobility 	startTime 	1746.1
scalar RSUExampleScenario.node[291].veinsmobility 	totalTime 	227.1
scalar RSUExampleScenario.node[291].veinsmobility 	stopTime 	1973.3
scalar RSUExampleScenario.node[291].veinsmobility 	minSpeed 	0.25659933638945
scalar RSUExampleScenario.node[291].veinsmobility 	maxSpeed 	18.999984768212
scalar RSUExampleScenario.node[291].veinsmobility 	totalDistance 	3409.1605721315
scalar RSUExampleScenario.node[291].veinsmobility 	totalCO2Emission 	711.59547830074
scalar RSUExampleScenario.node[292].veinsmobility 	startTime 	1752.1
scalar RSUExampleScenario.node[292].veinsmobility 	totalTime 	227
scalar RSUExampleScenario.node[292].veinsmobility 	stopTime 	1979.2
scalar RSUExampleScenario.node[292].veinsmobility 	minSpeed 	0.25144287545956
scalar RSUExampleScenario.node[292].veinsmobility 	maxSpeed 	18.999911322254
scalar RSUExampleScenario.node[292].veinsmobility 	totalDistance 	3409.1268298831
scalar RSUExampleScenario.node[292].veinsmobility 	totalCO2Emission 	706.70304433842
scalar RSUExampleScenario.node[293].veinsmobility 	startTime 	1758.1
scalar RSUExampleScenario.node[293].veinsmobility 	totalTime 	227.1
scalar RSUExampleScenario.node[293].veinsmobility 	stopTime 	1985.3
scalar RSUExampleScenario.node[293].veinsmobility 	minSpeed 	0.25676950174663
scalar RSUExampleScenario.node[293].veinsmobility 	maxSpeed 	18.999835507735
scalar RSUExampleScenario.node[293].veinsmobility 	totalDistance 	3409.447007573
scalar RSUExampleScenario.node[293].veinsmobility 	totalCO2Emission 	708.48855017678
scalar RSUExampleScenario.node[294].veinsmobility 	startTime 	1764.1
scalar RSUExampleScenario.node[294].veinsmobility 	totalTime 	226.9
scalar RSUExampleScenario.node[294].veinsmobility 	stopTime 	1991.1
scalar RSUExampleScenario.node[294].veinsmobility 	minSpeed 	0.2514379345139
scalar RSUExampleScenario.node[294].veinsmobility 	maxSpeed 	18.999879330206
scalar RSUExampleScenario.node[294].veinsmobility 	totalDistance 	3409.4740750544
scalar RSUExampleScenario.node[294].veinsmobility 	totalCO2Emission 	708.85906186992
scalar RSUExampleScenario.node[295].veinsmobility 	startTime 	1770.1
scalar RSUExampleScenario.node[295].veinsmobility 	totalTime 	226.8
scalar RSUExampleScenario.node[295].veinsmobility 	stopTime 	1997
scalar RSUExampleScenario.node[295].veinsmobility 	minSpeed 	0.25698134771548
scalar RSUExampleScenario.node[295].veinsmobility 	maxSpeed 	18.99968394238
scalar RSUExampleScenario.node[295].veinsmobility 	totalDistance 	3409.6408410268
scalar RSUExampleScenario.node[295].veinsmobility 	totalCO2Emission 	706.5725323433
scalar RSUExampleScenario.node[296].veinsmobility 	startTime 	1776.1
scalar RSUExampleScenario.node[296].veinsmobility 	totalTime 	223.8
scalar RSUExampleScenario.node[296].veinsmobility 	stopTime 	2000
scalar RSUExampleScenario.node[296].veinsmobility 	minSpeed 	0.25346567129088
scalar RSUExampleScenario.node[296].veinsmobility 	maxSpeed 	18.999823619016
scalar RSUExampleScenario.node[296].veinsmobility 	totalDistance 	3389.987748366
scalar RSUExampleScenario.node[296].veinsmobility 	totalCO2Emission 	691.97474533062
scalar RSUExampleScenario.node[297].veinsmobility 	startTime 	1782.1
scalar RSUExampleScenario.node[297].veinsmobility 	totalTime 	217.8
scalar RSUExampleScenario.node[297].veinsmobility 	stopTime 	2000
scalar RSUExampleScenario.node[297].veinsmobility 	minSpeed 	0.25821990965749
scalar RSUExampleScenario.node[297].veinsmobility 	maxSpeed 	18.999322134643
scalar RSUExampleScenario.node[297].veinsmobility 	totalDistance 	3323.3132572488
scalar RSUExampleScenario.node[297].veinsmobility 	totalCO2Emission 	683.02651004225
scalar RSUExampleScenario.node[298].veinsmobility 	startTime 	1788.1
scalar RSUExampleScenario.node[298].veinsmobility 	totalTime 	211.8
scalar RSUExampleScenario.node[298].veinsmobility 	stopTime 	2000
scalar RSUExampleScenario.node[298].veinsmobility 	minSpeed 	0.24805548723834
scalar RSUExampleScenario.node[298].veinsmobility 	maxSpeed 	18.999997913416
scalar RSUExampleScenario.node[298].veinsmobility 	totalDistance 	3240.5747211913
scalar RSUExampleScenario.node[298].veinsmobility 	totalCO2Emission 	672.51808425403
scalar RSUExampleScenario.node[299].veinsmobility 	startTime 	1794.1
scalar RSUExampleScenario.node[299].veinsmobility 	totalTime 	205.8
scalar RSUExampleScenario.node[299].veinsmobility 	stopTime 	2000
scalar RSUExampleScenario.node[299].veinsmobility 	minSpeed 	0.25669346862007
scalar RSUExampleScenario.node[299].veinsmobility 	maxSpeed 	18.999999493314
scalar RSUExampleScenario.node[299].veinsmobility 	totalDistance 	3159.1544113434
scalar RSUExampleScenario.node[299].veinsmobility 	totalCO2Emission 	654.73332764412
