version 2
run statisticLeach-604-20150323-12:19:06-13568
attr c 4
attr configname statisticLeach
attr datetime 20150323-12:19:06
attr experiment statisticLeach
attr inifile omnetpp.ini
attr iterationvars "$p=1/5, $c=4"
attr iterationvars2 "$p=1/5, $c=4, $repetition=4"
attr measurement "$p=1/5, $c=4"
attr network RSUExampleScenario
attr p 1/5
attr processid 13568
attr repetition 4
attr replication #4
attr resultdir results
attr runnumber 604
attr seedset 604

scalar . 	c 	4
scalar RSUExampleScenario.node[0].appl 	meanClusterNodes 	1.8333333333333
scalar RSUExampleScenario.node[0].appl 	meanClusterHeadUtility 	5.908514174184
scalar RSUExampleScenario.node[0].appl 	NumberofCH 	0.16216216216216
scalar RSUExampleScenario.node[0].appl 	NumberofON 	0.51351351351351
scalar RSUExampleScenario.node[0].appl 	NumberofFN 	0.32432432432432
scalar RSUExampleScenario.node[0].veinsmobility 	startTime 	0.1
scalar RSUExampleScenario.node[0].veinsmobility 	totalTime 	449.9
scalar RSUExampleScenario.node[0].veinsmobility 	stopTime 	450
scalar RSUExampleScenario.node[0].veinsmobility 	minSpeed 	0
scalar RSUExampleScenario.node[0].veinsmobility 	maxSpeed 	13.999999638842
scalar RSUExampleScenario.node[0].veinsmobility 	totalDistance 	3134.2730275269
scalar RSUExampleScenario.node[0].veinsmobility 	totalCO2Emission 	840.28430147647
scalar RSUExampleScenario.node[1].appl 	meanClusterNodes 	2.8333333333333
scalar RSUExampleScenario.node[1].appl 	meanClusterHeadUtility 	6.077786411281
scalar RSUExampleScenario.node[1].appl 	NumberofCH 	0.16216216216216
scalar RSUExampleScenario.node[1].appl 	NumberofON 	0.2972972972973
scalar RSUExampleScenario.node[1].appl 	NumberofFN 	0.54054054054054
scalar RSUExampleScenario.node[1].veinsmobility 	startTime 	2.5
scalar RSUExampleScenario.node[1].veinsmobility 	totalTime 	447.5
scalar RSUExampleScenario.node[1].veinsmobility 	stopTime 	450
scalar RSUExampleScenario.node[1].veinsmobility 	minSpeed 	0
scalar RSUExampleScenario.node[1].veinsmobility 	maxSpeed 	13.999967509105
scalar RSUExampleScenario.node[1].veinsmobility 	totalDistance 	3081.4471354257
scalar RSUExampleScenario.node[1].veinsmobility 	totalCO2Emission 	827.71405599217
scalar RSUExampleScenario.node[10].appl 	meanClusterNodes 	3
scalar RSUExampleScenario.node[10].appl 	meanClusterHeadUtility 	6.2141793586944
scalar RSUExampleScenario.node[10].appl 	NumberofCH 	0.16216216216216
scalar RSUExampleScenario.node[10].appl 	NumberofON 	0.56756756756757
scalar RSUExampleScenario.node[10].appl 	NumberofFN 	0.27027027027027
scalar RSUExampleScenario.node[10].veinsmobility 	startTime 	24.2
scalar RSUExampleScenario.node[10].veinsmobility 	totalTime 	425.8
scalar RSUExampleScenario.node[10].veinsmobility 	stopTime 	450
scalar RSUExampleScenario.node[10].veinsmobility 	minSpeed 	0
scalar RSUExampleScenario.node[10].veinsmobility 	maxSpeed 	13.999999222446
scalar RSUExampleScenario.node[10].veinsmobility 	totalDistance 	2787.8337161868
scalar RSUExampleScenario.node[10].veinsmobility 	totalCO2Emission 	760.39505720597
scalar RSUExampleScenario.node[11].appl 	meanClusterNodes 	3.125
scalar RSUExampleScenario.node[11].appl 	meanClusterHeadUtility 	4.28635164645
scalar RSUExampleScenario.node[11].appl 	NumberofCH 	0.21621621621622
scalar RSUExampleScenario.node[11].appl 	NumberofON 	0.43243243243243
scalar RSUExampleScenario.node[11].appl 	NumberofFN 	0.35135135135135
scalar RSUExampleScenario.node[11].veinsmobility 	startTime 	26.6
scalar RSUExampleScenario.node[11].veinsmobility 	totalTime 	423.4
scalar RSUExampleScenario.node[11].veinsmobility 	stopTime 	450
scalar RSUExampleScenario.node[11].veinsmobility 	minSpeed 	0
scalar RSUExampleScenario.node[11].veinsmobility 	maxSpeed 	13.999947987376
scalar RSUExampleScenario.node[11].veinsmobility 	totalDistance 	2756.9105162552
scalar RSUExampleScenario.node[11].veinsmobility 	totalCO2Emission 	749.99550552001
scalar RSUExampleScenario.node[12].appl 	meanClusterNodes 	2.875
scalar RSUExampleScenario.node[12].appl 	meanClusterHeadUtility 	4.3407148835526
scalar RSUExampleScenario.node[12].appl 	NumberofCH 	0.21621621621622
scalar RSUExampleScenario.node[12].appl 	NumberofON 	0.78378378378378
scalar RSUExampleScenario.node[12].appl 	NumberofFN 	0
scalar RSUExampleScenario.node[12].veinsmobility 	startTime 	29
scalar RSUExampleScenario.node[12].veinsmobility 	totalTime 	421
scalar RSUExampleScenario.node[12].veinsmobility 	stopTime 	450
scalar RSUExampleScenario.node[12].veinsmobility 	minSpeed 	0
scalar RSUExampleScenario.node[12].veinsmobility 	maxSpeed 	13.999834870291
scalar RSUExampleScenario.node[12].veinsmobility 	totalDistance 	2718.3213063557
scalar RSUExampleScenario.node[12].veinsmobility 	totalCO2Emission 	748.20324061659
scalar RSUExampleScenario.node[13].appl 	meanClusterNodes 	2.25
scalar RSUExampleScenario.node[13].appl 	meanClusterHeadUtility 	4.5359374432299
scalar RSUExampleScenario.node[13].appl 	NumberofCH 	0.21621621621622
scalar RSUExampleScenario.node[13].appl 	NumberofON 	0.48648648648649
scalar RSUExampleScenario.node[13].appl 	NumberofFN 	0.2972972972973
scalar RSUExampleScenario.node[13].veinsmobility 	startTime 	31.4
scalar RSUExampleScenario.node[13].veinsmobility 	totalTime 	418.6
scalar RSUExampleScenario.node[13].veinsmobility 	stopTime 	450
scalar RSUExampleScenario.node[13].veinsmobility 	minSpeed 	0
scalar RSUExampleScenario.node[13].veinsmobility 	maxSpeed 	13.999627369097
scalar RSUExampleScenario.node[13].veinsmobility 	totalDistance 	2683.4252209787
scalar RSUExampleScenario.node[13].veinsmobility 	totalCO2Emission 	739.08321229609
scalar RSUExampleScenario.node[14].appl 	meanClusterNodes 	2.7777777777778
scalar RSUExampleScenario.node[14].appl 	meanClusterHeadUtility 	3.7449563504483
scalar RSUExampleScenario.node[14].appl 	NumberofCH 	0.24324324324324
scalar RSUExampleScenario.node[14].appl 	NumberofON 	0.72972972972973
scalar RSUExampleScenario.node[14].appl 	NumberofFN 	0.027027027027027
scalar RSUExampleScenario.node[14].veinsmobility 	startTime 	33.8
scalar RSUExampleScenario.node[14].veinsmobility 	totalTime 	416.2
scalar RSUExampleScenario.node[14].veinsmobility 	stopTime 	450
scalar RSUExampleScenario.node[14].veinsmobility 	minSpeed 	0
scalar RSUExampleScenario.node[14].veinsmobility 	maxSpeed 	13.999993220123
scalar RSUExampleScenario.node[14].veinsmobility 	totalDistance 	2647.6035871206
scalar RSUExampleScenario.node[14].veinsmobility 	totalCO2Emission 	733.38036409177
scalar RSUExampleScenario.node[15].appl 	meanClusterNodes 	3
scalar RSUExampleScenario.node[15].appl 	meanClusterHeadUtility 	5.6429908446836
scalar RSUExampleScenario.node[15].appl 	NumberofCH 	0.16216216216216
scalar RSUExampleScenario.node[15].appl 	NumberofON 	0.43243243243243
scalar RSUExampleScenario.node[15].appl 	NumberofFN 	0.40540540540541
scalar RSUExampleScenario.node[15].veinsmobility 	startTime 	36.2
scalar RSUExampleScenario.node[15].veinsmobility 	totalTime 	413.8
scalar RSUExampleScenario.node[15].veinsmobility 	stopTime 	450
scalar RSUExampleScenario.node[15].veinsmobility 	minSpeed 	0
scalar RSUExampleScenario.node[15].veinsmobility 	maxSpeed 	13.999989894186
scalar RSUExampleScenario.node[15].veinsmobility 	totalDistance 	2616.9731971488
scalar RSUExampleScenario.node[15].veinsmobility 	totalCO2Emission 	729.35055494882
scalar RSUExampleScenario.node[16].appl 	meanClusterNodes 	2.5
scalar RSUExampleScenario.node[16].appl 	meanClusterHeadUtility 	4.6910933826755
scalar RSUExampleScenario.node[16].appl 	NumberofCH 	0.21621621621622
scalar RSUExampleScenario.node[16].appl 	NumberofON 	0.35135135135135
scalar RSUExampleScenario.node[16].appl 	NumberofFN 	0.43243243243243
scalar RSUExampleScenario.node[16].veinsmobility 	startTime 	38.6
scalar RSUExampleScenario.node[16].veinsmobility 	totalTime 	411.4
scalar RSUExampleScenario.node[16].veinsmobility 	stopTime 	450
scalar RSUExampleScenario.node[16].veinsmobility 	minSpeed 	0
scalar RSUExampleScenario.node[16].veinsmobility 	maxSpeed 	13.999996788809
scalar RSUExampleScenario.node[16].veinsmobility 	totalDistance 	2577.0378954089
scalar RSUExampleScenario.node[16].veinsmobility 	totalCO2Emission 	721.89602013842
scalar RSUExampleScenario.node[17].appl 	meanClusterNodes 	3
scalar RSUExampleScenario.node[17].appl 	meanClusterHeadUtility 	5.6473748947629
scalar RSUExampleScenario.node[17].appl 	NumberofCH 	0.16216216216216
scalar RSUExampleScenario.node[17].appl 	NumberofON 	0.32432432432432
scalar RSUExampleScenario.node[17].appl 	NumberofFN 	0.51351351351351
scalar RSUExampleScenario.node[17].veinsmobility 	startTime 	41
scalar RSUExampleScenario.node[17].veinsmobility 	totalTime 	409
scalar RSUExampleScenario.node[17].veinsmobility 	stopTime 	450
scalar RSUExampleScenario.node[17].veinsmobility 	minSpeed 	0
scalar RSUExampleScenario.node[17].veinsmobility 	maxSpeed 	13.999887160503
scalar RSUExampleScenario.node[17].veinsmobility 	totalDistance 	2540.7611962714
scalar RSUExampleScenario.node[17].veinsmobility 	totalCO2Emission 	715.12413138828
scalar RSUExampleScenario.node[18].appl 	meanClusterNodes 	1.375
scalar RSUExampleScenario.node[18].appl 	meanClusterHeadUtility 	4.0524743337281
scalar RSUExampleScenario.node[18].appl 	NumberofCH 	0.21621621621622
scalar RSUExampleScenario.node[18].appl 	NumberofON 	0.59459459459459
scalar RSUExampleScenario.node[18].appl 	NumberofFN 	0.18918918918919
scalar RSUExampleScenario.node[18].veinsmobility 	startTime 	43.4
scalar RSUExampleScenario.node[18].veinsmobility 	totalTime 	406.6
scalar RSUExampleScenario.node[18].veinsmobility 	stopTime 	450
scalar RSUExampleScenario.node[18].veinsmobility 	minSpeed 	0
scalar RSUExampleScenario.node[18].veinsmobility 	maxSpeed 	13.999909301472
scalar RSUExampleScenario.node[18].veinsmobility 	totalDistance 	2504.2430760337
scalar RSUExampleScenario.node[18].veinsmobility 	totalCO2Emission 	711.95193089618
scalar RSUExampleScenario.node[19].appl 	meanClusterNodes 	1.75
scalar RSUExampleScenario.node[19].appl 	meanClusterHeadUtility 	3.9085071074077
scalar RSUExampleScenario.node[19].appl 	NumberofCH 	0.21621621621622
scalar RSUExampleScenario.node[19].appl 	NumberofON 	0.62162162162162
scalar RSUExampleScenario.node[19].appl 	NumberofFN 	0.16216216216216
scalar RSUExampleScenario.node[19].veinsmobility 	startTime 	45.8
scalar RSUExampleScenario.node[19].veinsmobility 	totalTime 	404.2
scalar RSUExampleScenario.node[19].veinsmobility 	stopTime 	450
scalar RSUExampleScenario.node[19].veinsmobility 	minSpeed 	0
scalar RSUExampleScenario.node[19].veinsmobility 	maxSpeed 	13.999837117719
scalar RSUExampleScenario.node[19].veinsmobility 	totalDistance 	2473.2142537092
scalar RSUExampleScenario.node[19].veinsmobility 	totalCO2Emission 	703.74701342494
scalar RSUExampleScenario.node[2].appl 	meanClusterNodes 	2.375
scalar RSUExampleScenario.node[2].appl 	meanClusterHeadUtility 	4.2518523013017
scalar RSUExampleScenario.node[2].appl 	NumberofCH 	0.21621621621622
scalar RSUExampleScenario.node[2].appl 	NumberofON 	0.32432432432432
scalar RSUExampleScenario.node[2].appl 	NumberofFN 	0.45945945945946
scalar RSUExampleScenario.node[2].veinsmobility 	startTime 	4.9
scalar RSUExampleScenario.node[2].veinsmobility 	totalTime 	445.1
scalar RSUExampleScenario.node[2].veinsmobility 	stopTime 	450
scalar RSUExampleScenario.node[2].veinsmobility 	minSpeed 	0
scalar RSUExampleScenario.node[2].veinsmobility 	maxSpeed 	13.999994423336
scalar RSUExampleScenario.node[2].veinsmobility 	totalDistance 	3033.2036899719
scalar RSUExampleScenario.node[2].veinsmobility 	totalCO2Emission 	819.11074338909
scalar RSUExampleScenario.node[20].appl 	meanClusterNodes 	2.8333333333333
scalar RSUExampleScenario.node[20].appl 	meanClusterHeadUtility 	6.0843535964094
scalar RSUExampleScenario.node[20].appl 	NumberofCH 	0.16216216216216
scalar RSUExampleScenario.node[20].appl 	NumberofON 	0.7027027027027
scalar RSUExampleScenario.node[20].appl 	NumberofFN 	0.13513513513514
scalar RSUExampleScenario.node[20].veinsmobility 	startTime 	48.3
scalar RSUExampleScenario.node[20].veinsmobility 	totalTime 	401.7
scalar RSUExampleScenario.node[20].veinsmobility 	stopTime 	450
scalar RSUExampleScenario.node[20].veinsmobility 	minSpeed 	0
scalar RSUExampleScenario.node[20].veinsmobility 	maxSpeed 	13.999881542069
scalar RSUExampleScenario.node[20].veinsmobility 	totalDistance 	2437.2292177278
scalar RSUExampleScenario.node[20].veinsmobility 	totalCO2Emission 	699.10220039627
scalar RSUExampleScenario.node[21].appl 	meanClusterNodes 	3.875
scalar RSUExampleScenario.node[21].appl 	meanClusterHeadUtility 	4.1682683243539
scalar RSUExampleScenario.node[21].appl 	NumberofCH 	0.21621621621622
scalar RSUExampleScenario.node[21].appl 	NumberofON 	0.48648648648649
scalar RSUExampleScenario.node[21].appl 	NumberofFN 	0.2972972972973
scalar RSUExampleScenario.node[21].veinsmobility 	startTime 	50.7
scalar RSUExampleScenario.node[21].veinsmobility 	totalTime 	399.3
scalar RSUExampleScenario.node[21].veinsmobility 	stopTime 	450
scalar RSUExampleScenario.node[21].veinsmobility 	minSpeed 	0
scalar RSUExampleScenario.node[21].veinsmobility 	maxSpeed 	13.999766271145
scalar RSUExampleScenario.node[21].veinsmobility 	totalDistance 	2407.5800780896
scalar RSUExampleScenario.node[21].veinsmobility 	totalCO2Emission 	693.74931599823
scalar RSUExampleScenario.node[22].appl 	meanClusterNodes 	2.6666666666667
scalar RSUExampleScenario.node[22].appl 	meanClusterHeadUtility 	5.46446164448
scalar RSUExampleScenario.node[22].appl 	NumberofCH 	0.16216216216216
scalar RSUExampleScenario.node[22].appl 	NumberofON 	0.2972972972973
scalar RSUExampleScenario.node[22].appl 	NumberofFN 	0.54054054054054
scalar RSUExampleScenario.node[22].veinsmobility 	startTime 	53.1
scalar RSUExampleScenario.node[22].veinsmobility 	totalTime 	396.9
scalar RSUExampleScenario.node[22].veinsmobility 	stopTime 	450
scalar RSUExampleScenario.node[22].veinsmobility 	minSpeed 	0
scalar RSUExampleScenario.node[22].veinsmobility 	maxSpeed 	13.99995992301
scalar RSUExampleScenario.node[22].veinsmobility 	totalDistance 	2369.2628682125
scalar RSUExampleScenario.node[22].veinsmobility 	totalCO2Emission 	690.65791985934
scalar RSUExampleScenario.node[23].appl 	meanClusterNodes 	2
scalar RSUExampleScenario.node[23].appl 	meanClusterHeadUtility 	5.3240510396102
scalar RSUExampleScenario.node[23].appl 	NumberofCH 	0.16216216216216
scalar RSUExampleScenario.node[23].appl 	NumberofON 	0.75675675675676
scalar RSUExampleScenario.node[23].appl 	NumberofFN 	0.081081081081081
scalar RSUExampleScenario.node[23].veinsmobility 	startTime 	55.5
scalar RSUExampleScenario.node[23].veinsmobility 	totalTime 	394.5
scalar RSUExampleScenario.node[23].veinsmobility 	stopTime 	450
scalar RSUExampleScenario.node[23].veinsmobility 	minSpeed 	0
scalar RSUExampleScenario.node[23].veinsmobility 	maxSpeed 	13.999977575087
scalar RSUExampleScenario.node[23].veinsmobility 	totalDistance 	2338.63875075
scalar RSUExampleScenario.node[23].veinsmobility 	totalCO2Emission 	684.26688026362
scalar RSUExampleScenario.node[24].appl 	meanClusterNodes 	2
scalar RSUExampleScenario.node[24].appl 	meanClusterHeadUtility 	5.7959671834712
scalar RSUExampleScenario.node[24].appl 	NumberofCH 	0.16216216216216
scalar RSUExampleScenario.node[24].appl 	NumberofON 	0.64864864864865
scalar RSUExampleScenario.node[24].appl 	NumberofFN 	0.18918918918919
scalar RSUExampleScenario.node[24].veinsmobility 	startTime 	57.9
scalar RSUExampleScenario.node[24].veinsmobility 	totalTime 	392.1
scalar RSUExampleScenario.node[24].veinsmobility 	stopTime 	450
scalar RSUExampleScenario.node[24].veinsmobility 	minSpeed 	0
scalar RSUExampleScenario.node[24].veinsmobility 	maxSpeed 	13.999999267908
scalar RSUExampleScenario.node[24].veinsmobility 	totalDistance 	2300.8209916259
scalar RSUExampleScenario.node[24].veinsmobility 	totalCO2Emission 	675.5845800209
scalar RSUExampleScenario.node[25].appl 	meanClusterNodes 	3.3333333333333
scalar RSUExampleScenario.node[25].appl 	meanClusterHeadUtility 	6.1008038268025
scalar RSUExampleScenario.node[25].appl 	NumberofCH 	0.16216216216216
scalar RSUExampleScenario.node[25].appl 	NumberofON 	0.45945945945946
scalar RSUExampleScenario.node[25].appl 	NumberofFN 	0.37837837837838
scalar RSUExampleScenario.node[25].veinsmobility 	startTime 	60.3
scalar RSUExampleScenario.node[25].veinsmobility 	totalTime 	389.7
scalar RSUExampleScenario.node[25].veinsmobility 	stopTime 	450
scalar RSUExampleScenario.node[25].veinsmobility 	minSpeed 	0
scalar RSUExampleScenario.node[25].veinsmobility 	maxSpeed 	13.999985269057
scalar RSUExampleScenario.node[25].veinsmobility 	totalDistance 	2271.2526363657
scalar RSUExampleScenario.node[25].veinsmobility 	totalCO2Emission 	671.43321156396
scalar RSUExampleScenario.node[26].appl 	meanClusterNodes 	2.3333333333333
scalar RSUExampleScenario.node[26].appl 	meanClusterHeadUtility 	5.5421550615708
scalar RSUExampleScenario.node[26].appl 	NumberofCH 	0.16216216216216
scalar RSUExampleScenario.node[26].appl 	NumberofON 	0.75675675675676
scalar RSUExampleScenario.node[26].appl 	NumberofFN 	0.081081081081081
scalar RSUExampleScenario.node[26].veinsmobility 	startTime 	62.7
scalar RSUExampleScenario.node[26].veinsmobility 	totalTime 	387.3
scalar RSUExampleScenario.node[26].veinsmobility 	stopTime 	450
scalar RSUExampleScenario.node[26].veinsmobility 	minSpeed 	0
scalar RSUExampleScenario.node[26].veinsmobility 	maxSpeed 	13.999854006285
scalar RSUExampleScenario.node[26].veinsmobility 	totalDistance 	2234.0025410003
scalar RSUExampleScenario.node[26].veinsmobility 	totalCO2Emission 	666.7298916136
scalar RSUExampleScenario.node[27].appl 	meanClusterNodes 	2.875
scalar RSUExampleScenario.node[27].appl 	meanClusterHeadUtility 	4.0898418666637
scalar RSUExampleScenario.node[27].appl 	NumberofCH 	0.21621621621622
scalar RSUExampleScenario.node[27].appl 	NumberofON 	0.54054054054054
scalar RSUExampleScenario.node[27].appl 	NumberofFN 	0.24324324324324
scalar RSUExampleScenario.node[27].veinsmobility 	startTime 	65.1
scalar RSUExampleScenario.node[27].veinsmobility 	totalTime 	384.9
scalar RSUExampleScenario.node[27].veinsmobility 	stopTime 	450
scalar RSUExampleScenario.node[27].veinsmobility 	minSpeed 	0
scalar RSUExampleScenario.node[27].veinsmobility 	maxSpeed 	13.99991910609
scalar RSUExampleScenario.node[27].veinsmobility 	totalDistance 	2206.2426745082
scalar RSUExampleScenario.node[27].veinsmobility 	totalCO2Emission 	658.36744160095
scalar RSUExampleScenario.node[28].appl 	meanClusterNodes 	1.6666666666667
scalar RSUExampleScenario.node[28].appl 	meanClusterHeadUtility 	5.3569900141032
scalar RSUExampleScenario.node[28].appl 	NumberofCH 	0.16216216216216
scalar RSUExampleScenario.node[28].appl 	NumberofON 	0.81081081081081
scalar RSUExampleScenario.node[28].appl 	NumberofFN 	0.027027027027027
scalar RSUExampleScenario.node[28].veinsmobility 	startTime 	67.5
scalar RSUExampleScenario.node[28].veinsmobility 	totalTime 	382.5
scalar RSUExampleScenario.node[28].veinsmobility 	stopTime 	450
scalar RSUExampleScenario.node[28].veinsmobility 	minSpeed 	0
scalar RSUExampleScenario.node[28].veinsmobility 	maxSpeed 	13.99990493359
scalar RSUExampleScenario.node[28].veinsmobility 	totalDistance 	2166.1872382894
scalar RSUExampleScenario.node[28].veinsmobility 	totalCO2Emission 	656.0565323025
scalar RSUExampleScenario.node[29].appl 	meanClusterNodes 	1.625
scalar RSUExampleScenario.node[29].appl 	meanClusterHeadUtility 	4.6118203048768
scalar RSUExampleScenario.node[29].appl 	NumberofCH 	0.21621621621622
scalar RSUExampleScenario.node[29].appl 	NumberofON 	0.7027027027027
scalar RSUExampleScenario.node[29].appl 	NumberofFN 	0.081081081081081
scalar RSUExampleScenario.node[29].veinsmobility 	startTime 	69.9
scalar RSUExampleScenario.node[29].veinsmobility 	totalTime 	380.1
scalar RSUExampleScenario.node[29].veinsmobility 	stopTime 	450
scalar RSUExampleScenario.node[29].veinsmobility 	minSpeed 	0
scalar RSUExampleScenario.node[29].veinsmobility 	maxSpeed 	13.999926322976
scalar RSUExampleScenario.node[29].veinsmobility 	totalDistance 	2135.2314643149
scalar RSUExampleScenario.node[29].veinsmobility 	totalCO2Emission 	647.26563022209
scalar RSUExampleScenario.node[3].appl 	meanClusterNodes 	1.875
scalar RSUExampleScenario.node[3].appl 	meanClusterHeadUtility 	4.4928006315092
scalar RSUExampleScenario.node[3].appl 	NumberofCH 	0.21621621621622
scalar RSUExampleScenario.node[3].appl 	NumberofON 	0.62162162162162
scalar RSUExampleScenario.node[3].appl 	NumberofFN 	0.16216216216216
scalar RSUExampleScenario.node[3].veinsmobility 	startTime 	7.3
scalar RSUExampleScenario.node[3].veinsmobility 	totalTime 	442.7
scalar RSUExampleScenario.node[3].veinsmobility 	stopTime 	450
scalar RSUExampleScenario.node[3].veinsmobility 	minSpeed 	0
scalar RSUExampleScenario.node[3].veinsmobility 	maxSpeed 	13.99996047528
scalar RSUExampleScenario.node[3].veinsmobility 	totalDistance 	2996.8295993999
scalar RSUExampleScenario.node[3].veinsmobility 	totalCO2Emission 	814.26651542328
scalar RSUExampleScenario.node[30].appl 	meanClusterNodes 	2
scalar RSUExampleScenario.node[30].appl 	meanClusterHeadUtility 	4.2569410553508
scalar RSUExampleScenario.node[30].appl 	NumberofCH 	0.21621621621622
scalar RSUExampleScenario.node[30].appl 	NumberofON 	0.62162162162162
scalar RSUExampleScenario.node[30].appl 	NumberofFN 	0.16216216216216
scalar RSUExampleScenario.node[30].veinsmobility 	startTime 	72.4
scalar RSUExampleScenario.node[30].veinsmobility 	totalTime 	377.6
scalar RSUExampleScenario.node[30].veinsmobility 	stopTime 	450
scalar RSUExampleScenario.node[30].veinsmobility 	minSpeed 	0
scalar RSUExampleScenario.node[30].veinsmobility 	maxSpeed 	13.999934736264
scalar RSUExampleScenario.node[30].veinsmobility 	totalDistance 	2100.4626921122
scalar RSUExampleScenario.node[30].veinsmobility 	totalCO2Emission 	643.78122068973
scalar RSUExampleScenario.node[31].appl 	meanClusterNodes 	1.6666666666667
scalar RSUExampleScenario.node[31].appl 	meanClusterHeadUtility 	5.1850366602053
scalar RSUExampleScenario.node[31].appl 	NumberofCH 	0.16216216216216
scalar RSUExampleScenario.node[31].appl 	NumberofON 	0.72972972972973
scalar RSUExampleScenario.node[31].appl 	NumberofFN 	0.10810810810811
scalar RSUExampleScenario.node[31].veinsmobility 	startTime 	74.8
scalar RSUExampleScenario.node[31].veinsmobility 	totalTime 	375.2
scalar RSUExampleScenario.node[31].veinsmobility 	stopTime 	450
scalar RSUExampleScenario.node[31].veinsmobility 	minSpeed 	0
scalar RSUExampleScenario.node[31].veinsmobility 	maxSpeed 	13.999802790738
scalar RSUExampleScenario.node[31].veinsmobility 	totalDistance 	2068.1948696617
scalar RSUExampleScenario.node[31].veinsmobility 	totalCO2Emission 	639.62042954624
scalar RSUExampleScenario.node[32].appl 	meanClusterNodes 	2.8571428571429
scalar RSUExampleScenario.node[32].appl 	meanClusterHeadUtility 	4.7530762615018
scalar RSUExampleScenario.node[32].appl 	NumberofCH 	0.18918918918919
scalar RSUExampleScenario.node[32].appl 	NumberofON 	0.59459459459459
scalar RSUExampleScenario.node[32].appl 	NumberofFN 	0.21621621621622
scalar RSUExampleScenario.node[32].veinsmobility 	startTime 	77.2
scalar RSUExampleScenario.node[32].veinsmobility 	totalTime 	372.8
scalar RSUExampleScenario.node[32].veinsmobility 	stopTime 	450
scalar RSUExampleScenario.node[32].veinsmobility 	minSpeed 	0
scalar RSUExampleScenario.node[32].veinsmobility 	maxSpeed 	13.9998839932
scalar RSUExampleScenario.node[32].veinsmobility 	totalDistance 	2032.7885955972
scalar RSUExampleScenario.node[32].veinsmobility 	totalCO2Emission 	633.86884873527
scalar RSUExampleScenario.node[33].appl 	meanClusterNodes 	3.8333333333333
scalar RSUExampleScenario.node[33].appl 	meanClusterHeadUtility 	5.9664199295922
scalar RSUExampleScenario.node[33].appl 	NumberofCH 	0.16216216216216
scalar RSUExampleScenario.node[33].appl 	NumberofON 	0.37837837837838
scalar RSUExampleScenario.node[33].appl 	NumberofFN 	0.45945945945946
scalar RSUExampleScenario.node[33].veinsmobility 	startTime 	79.6
scalar RSUExampleScenario.node[33].veinsmobility 	totalTime 	370.4
scalar RSUExampleScenario.node[33].veinsmobility 	stopTime 	450
scalar RSUExampleScenario.node[33].veinsmobility 	minSpeed 	0
scalar RSUExampleScenario.node[33].veinsmobility 	maxSpeed 	13.999927166484
scalar RSUExampleScenario.node[33].veinsmobility 	totalDistance 	1997.6653006645
scalar RSUExampleScenario.node[33].veinsmobility 	totalCO2Emission 	625.01596159029
scalar RSUExampleScenario.node[34].appl 	meanClusterNodes 	2.75
scalar RSUExampleScenario.node[34].appl 	meanClusterHeadUtility 	4.2151762352768
scalar RSUExampleScenario.node[34].appl 	NumberofCH 	0.21621621621622
scalar RSUExampleScenario.node[34].appl 	NumberofON 	0.67567567567568
scalar RSUExampleScenario.node[34].appl 	NumberofFN 	0.10810810810811
scalar RSUExampleScenario.node[34].veinsmobility 	startTime 	82
scalar RSUExampleScenario.node[34].veinsmobility 	totalTime 	368
scalar RSUExampleScenario.node[34].veinsmobility 	stopTime 	450
scalar RSUExampleScenario.node[34].veinsmobility 	minSpeed 	0
scalar RSUExampleScenario.node[34].veinsmobility 	maxSpeed 	13.999959830239
scalar RSUExampleScenario.node[34].veinsmobility 	totalDistance 	1964.6165926912
scalar RSUExampleScenario.node[34].veinsmobility 	totalCO2Emission 	619.91669515902
scalar RSUExampleScenario.node[35].appl 	meanClusterNodes 	2.875
scalar RSUExampleScenario.node[35].appl 	meanClusterHeadUtility 	3.9168058043096
scalar RSUExampleScenario.node[35].appl 	NumberofCH 	0.21621621621622
scalar RSUExampleScenario.node[35].appl 	NumberofON 	0.37837837837838
scalar RSUExampleScenario.node[35].appl 	NumberofFN 	0.40540540540541
scalar RSUExampleScenario.node[35].veinsmobility 	startTime 	84.4
scalar RSUExampleScenario.node[35].veinsmobility 	totalTime 	365.6
scalar RSUExampleScenario.node[35].veinsmobility 	stopTime 	450
scalar RSUExampleScenario.node[35].veinsmobility 	minSpeed 	0
scalar RSUExampleScenario.node[35].veinsmobility 	maxSpeed 	13.999766436226
scalar RSUExampleScenario.node[35].veinsmobility 	totalDistance 	1931.15979522
scalar RSUExampleScenario.node[35].veinsmobility 	totalCO2Emission 	613.69077336036
scalar RSUExampleScenario.node[36].appl 	meanClusterNodes 	1.2857142857143
scalar RSUExampleScenario.node[36].appl 	meanClusterHeadUtility 	5.1332565338166
scalar RSUExampleScenario.node[36].appl 	NumberofCH 	0.18918918918919
scalar RSUExampleScenario.node[36].appl 	NumberofON 	0.81081081081081
scalar RSUExampleScenario.node[36].appl 	NumberofFN 	0
scalar RSUExampleScenario.node[36].veinsmobility 	startTime 	86.8
scalar RSUExampleScenario.node[36].veinsmobility 	totalTime 	363.2
scalar RSUExampleScenario.node[36].veinsmobility 	stopTime 	450
scalar RSUExampleScenario.node[36].veinsmobility 	minSpeed 	0
scalar RSUExampleScenario.node[36].veinsmobility 	maxSpeed 	13.999730545934
scalar RSUExampleScenario.node[36].veinsmobility 	totalDistance 	1897.8946367352
scalar RSUExampleScenario.node[36].veinsmobility 	totalCO2Emission 	608.28576991864
scalar RSUExampleScenario.node[37].appl 	meanClusterNodes 	2.3333333333333
scalar RSUExampleScenario.node[37].appl 	meanClusterHeadUtility 	5.7393328811531
scalar RSUExampleScenario.node[37].appl 	NumberofCH 	0.16216216216216
scalar RSUExampleScenario.node[37].appl 	NumberofON 	0.32432432432432
scalar RSUExampleScenario.node[37].appl 	NumberofFN 	0.51351351351351
scalar RSUExampleScenario.node[37].veinsmobility 	startTime 	89.2
scalar RSUExampleScenario.node[37].veinsmobility 	totalTime 	360.8
scalar RSUExampleScenario.node[37].veinsmobility 	stopTime 	450
scalar RSUExampleScenario.node[37].veinsmobility 	minSpeed 	0
scalar RSUExampleScenario.node[37].veinsmobility 	maxSpeed 	13.999780541833
scalar RSUExampleScenario.node[37].veinsmobility 	totalDistance 	1863.4535004965
scalar RSUExampleScenario.node[37].veinsmobility 	totalCO2Emission 	606.41787264834
scalar RSUExampleScenario.node[38].appl 	meanClusterNodes 	4
scalar RSUExampleScenario.node[38].appl 	meanClusterHeadUtility 	5.6058303389261
scalar RSUExampleScenario.node[38].appl 	NumberofCH 	0.16216216216216
scalar RSUExampleScenario.node[38].appl 	NumberofON 	0.67567567567568
scalar RSUExampleScenario.node[38].appl 	NumberofFN 	0.16216216216216
scalar RSUExampleScenario.node[38].veinsmobility 	startTime 	91.6
scalar RSUExampleScenario.node[38].veinsmobility 	totalTime 	358.4
scalar RSUExampleScenario.node[38].veinsmobility 	stopTime 	450
scalar RSUExampleScenario.node[38].veinsmobility 	minSpeed 	0
scalar RSUExampleScenario.node[38].veinsmobility 	maxSpeed 	13.999931267372
scalar RSUExampleScenario.node[38].veinsmobility 	totalDistance 	1832.0991742886
scalar RSUExampleScenario.node[38].veinsmobility 	totalCO2Emission 	597.88549867059
scalar RSUExampleScenario.node[39].appl 	meanClusterNodes 	2.1666666666667
scalar RSUExampleScenario.node[39].appl 	meanClusterHeadUtility 	5.6795152997527
scalar RSUExampleScenario.node[39].appl 	NumberofCH 	0.16216216216216
scalar RSUExampleScenario.node[39].appl 	NumberofON 	0.45945945945946
scalar RSUExampleScenario.node[39].appl 	NumberofFN 	0.37837837837838
scalar RSUExampleScenario.node[39].veinsmobility 	startTime 	94
scalar RSUExampleScenario.node[39].veinsmobility 	totalTime 	356
scalar RSUExampleScenario.node[39].veinsmobility 	stopTime 	450
scalar RSUExampleScenario.node[39].veinsmobility 	minSpeed 	0
scalar RSUExampleScenario.node[39].veinsmobility 	maxSpeed 	13.999697505464
scalar RSUExampleScenario.node[39].veinsmobility 	totalDistance 	1796.6293235645
scalar RSUExampleScenario.node[39].veinsmobility 	totalCO2Emission 	592.16467948725
scalar RSUExampleScenario.node[4].appl 	meanClusterNodes 	1.375
scalar RSUExampleScenario.node[4].appl 	meanClusterHeadUtility 	4.052507764831
scalar RSUExampleScenario.node[4].appl 	NumberofCH 	0.21621621621622
scalar RSUExampleScenario.node[4].appl 	NumberofON 	0.7027027027027
scalar RSUExampleScenario.node[4].appl 	NumberofFN 	0.081081081081081
scalar RSUExampleScenario.node[4].veinsmobility 	startTime 	9.7
scalar RSUExampleScenario.node[4].veinsmobility 	totalTime 	440.3
scalar RSUExampleScenario.node[4].veinsmobility 	stopTime 	450
scalar RSUExampleScenario.node[4].veinsmobility 	minSpeed 	0
scalar RSUExampleScenario.node[4].veinsmobility 	maxSpeed 	13.999912278934
scalar RSUExampleScenario.node[4].veinsmobility 	totalDistance 	2944.8944223196
scalar RSUExampleScenario.node[4].veinsmobility 	totalCO2Emission 	796.00803072493
scalar RSUExampleScenario.node[40].appl 	meanClusterNodes 	3.375
scalar RSUExampleScenario.node[40].appl 	meanClusterHeadUtility 	4.1228318391776
scalar RSUExampleScenario.node[40].appl 	NumberofCH 	0.21621621621622
scalar RSUExampleScenario.node[40].appl 	NumberofON 	0.43243243243243
scalar RSUExampleScenario.node[40].appl 	NumberofFN 	0.35135135135135
scalar RSUExampleScenario.node[40].veinsmobility 	startTime 	96.5
scalar RSUExampleScenario.node[40].veinsmobility 	totalTime 	353.5
scalar RSUExampleScenario.node[40].veinsmobility 	stopTime 	450
scalar RSUExampleScenario.node[40].veinsmobility 	minSpeed 	0
scalar RSUExampleScenario.node[40].veinsmobility 	maxSpeed 	13.999912695845
scalar RSUExampleScenario.node[40].veinsmobility 	totalDistance 	1764.5317558071
scalar RSUExampleScenario.node[40].veinsmobility 	totalCO2Emission 	584.17222770124
scalar RSUExampleScenario.node[41].appl 	meanClusterNodes 	3
scalar RSUExampleScenario.node[41].appl 	meanClusterHeadUtility 	3.9989346841583
scalar RSUExampleScenario.node[41].appl 	NumberofCH 	0.21621621621622
scalar RSUExampleScenario.node[41].appl 	NumberofON 	0.56756756756757
scalar RSUExampleScenario.node[41].appl 	NumberofFN 	0.21621621621622
scalar RSUExampleScenario.node[41].veinsmobility 	startTime 	98.9
scalar RSUExampleScenario.node[41].veinsmobility 	totalTime 	351.1
scalar RSUExampleScenario.node[41].veinsmobility 	stopTime 	450
scalar RSUExampleScenario.node[41].veinsmobility 	minSpeed 	0
scalar RSUExampleScenario.node[41].veinsmobility 	maxSpeed 	13.999916809082
scalar RSUExampleScenario.node[41].veinsmobility 	totalDistance 	1730.6506810229
scalar RSUExampleScenario.node[41].veinsmobility 	totalCO2Emission 	578.39776213827
scalar RSUExampleScenario.node[42].appl 	meanClusterNodes 	1.8
scalar RSUExampleScenario.node[42].appl 	meanClusterHeadUtility 	3.1613621399883
scalar RSUExampleScenario.node[42].appl 	NumberofCH 	0.27027027027027
scalar RSUExampleScenario.node[42].appl 	NumberofON 	0.32432432432432
scalar RSUExampleScenario.node[42].appl 	NumberofFN 	0.40540540540541
scalar RSUExampleScenario.node[42].veinsmobility 	startTime 	101.3
scalar RSUExampleScenario.node[42].veinsmobility 	totalTime 	348.7
scalar RSUExampleScenario.node[42].veinsmobility 	stopTime 	450
scalar RSUExampleScenario.node[42].veinsmobility 	minSpeed 	0
scalar RSUExampleScenario.node[42].veinsmobility 	maxSpeed 	13.999955609974
scalar RSUExampleScenario.node[42].veinsmobility 	totalDistance 	1697.2046665678
scalar RSUExampleScenario.node[42].veinsmobility 	totalCO2Emission 	577.98635193119
scalar RSUExampleScenario.node[43].appl 	meanClusterNodes 	1.8888888888889
scalar RSUExampleScenario.node[43].appl 	meanClusterHeadUtility 	4.5814001674429
scalar RSUExampleScenario.node[43].appl 	NumberofCH 	0.24324324324324
scalar RSUExampleScenario.node[43].appl 	NumberofON 	0.67567567567568
scalar RSUExampleScenario.node[43].appl 	NumberofFN 	0.081081081081081
scalar RSUExampleScenario.node[43].veinsmobility 	startTime 	103.7
scalar RSUExampleScenario.node[43].veinsmobility 	totalTime 	346.3
scalar RSUExampleScenario.node[43].veinsmobility 	stopTime 	450
scalar RSUExampleScenario.node[43].veinsmobility 	minSpeed 	0
scalar RSUExampleScenario.node[43].veinsmobility 	maxSpeed 	13.999850336656
scalar RSUExampleScenario.node[43].veinsmobility 	totalDistance 	1663.1330966175
scalar RSUExampleScenario.node[43].veinsmobility 	totalCO2Emission 	569.59002554391
scalar RSUExampleScenario.node[44].appl 	meanClusterNodes 	1.8333333333333
scalar RSUExampleScenario.node[44].appl 	meanClusterHeadUtility 	5.4842665579237
scalar RSUExampleScenario.node[44].appl 	NumberofCH 	0.16216216216216
scalar RSUExampleScenario.node[44].appl 	NumberofON 	0.83783783783784
scalar RSUExampleScenario.node[44].appl 	NumberofFN 	0
scalar RSUExampleScenario.node[44].veinsmobility 	startTime 	106.1
scalar RSUExampleScenario.node[44].veinsmobility 	totalTime 	343.9
scalar RSUExampleScenario.node[44].veinsmobility 	stopTime 	450
scalar RSUExampleScenario.node[44].veinsmobility 	minSpeed 	0
scalar RSUExampleScenario.node[44].veinsmobility 	maxSpeed 	13.999810939878
scalar RSUExampleScenario.node[44].veinsmobility 	totalDistance 	1629.7935433083
scalar RSUExampleScenario.node[44].veinsmobility 	totalCO2Emission 	564.72921428139
scalar RSUExampleScenario.node[45].appl 	meanClusterNodes 	2.25
scalar RSUExampleScenario.node[45].appl 	meanClusterHeadUtility 	3.8981080476029
scalar RSUExampleScenario.node[45].appl 	NumberofCH 	0.21621621621622
scalar RSUExampleScenario.node[45].appl 	NumberofON 	0.72972972972973
scalar RSUExampleScenario.node[45].appl 	NumberofFN 	0.054054054054054
scalar RSUExampleScenario.node[45].veinsmobility 	startTime 	108.5
scalar RSUExampleScenario.node[45].veinsmobility 	totalTime 	341.5
scalar RSUExampleScenario.node[45].veinsmobility 	stopTime 	450
scalar RSUExampleScenario.node[45].veinsmobility 	minSpeed 	0
scalar RSUExampleScenario.node[45].veinsmobility 	maxSpeed 	13.999940178539
scalar RSUExampleScenario.node[45].veinsmobility 	totalDistance 	1596.9309563135
scalar RSUExampleScenario.node[45].veinsmobility 	totalCO2Emission 	559.67373503249
scalar RSUExampleScenario.node[46].appl 	meanClusterNodes 	1.1666666666667
scalar RSUExampleScenario.node[46].appl 	meanClusterHeadUtility 	5.360525488716
scalar RSUExampleScenario.node[46].appl 	NumberofCH 	0.16216216216216
scalar RSUExampleScenario.node[46].appl 	NumberofON 	0.56756756756757
scalar RSUExampleScenario.node[46].appl 	NumberofFN 	0.27027027027027
scalar RSUExampleScenario.node[46].veinsmobility 	startTime 	110.9
scalar RSUExampleScenario.node[46].veinsmobility 	totalTime 	339.1
scalar RSUExampleScenario.node[46].veinsmobility 	stopTime 	450
scalar RSUExampleScenario.node[46].veinsmobility 	minSpeed 	0
scalar RSUExampleScenario.node[46].veinsmobility 	maxSpeed 	13.999985786851
scalar RSUExampleScenario.node[46].veinsmobility 	totalDistance 	1562.7286084956
scalar RSUExampleScenario.node[46].veinsmobility 	totalCO2Emission 	552.89885639989
scalar RSUExampleScenario.node[47].appl 	meanClusterNodes 	1.875
scalar RSUExampleScenario.node[47].appl 	meanClusterHeadUtility 	4.7495401029184
scalar RSUExampleScenario.node[47].appl 	NumberofCH 	0.21621621621622
scalar RSUExampleScenario.node[47].appl 	NumberofON 	0.62162162162162
scalar RSUExampleScenario.node[47].appl 	NumberofFN 	0.16216216216216
scalar RSUExampleScenario.node[47].veinsmobility 	startTime 	113.3
scalar RSUExampleScenario.node[47].veinsmobility 	totalTime 	336.7
scalar RSUExampleScenario.node[47].veinsmobility 	stopTime 	450
scalar RSUExampleScenario.node[47].veinsmobility 	minSpeed 	0
scalar RSUExampleScenario.node[47].veinsmobility 	maxSpeed 	13.999951199838
scalar RSUExampleScenario.node[47].veinsmobility 	totalDistance 	1529.2772810814
scalar RSUExampleScenario.node[47].veinsmobility 	totalCO2Emission 	549.33711031242
scalar RSUExampleScenario.node[48].appl 	meanClusterNodes 	2.7
scalar RSUExampleScenario.node[48].appl 	meanClusterHeadUtility 	3.8482603346779
scalar RSUExampleScenario.node[48].appl 	NumberofCH 	0.27027027027027
scalar RSUExampleScenario.node[48].appl 	NumberofON 	0.51351351351351
scalar RSUExampleScenario.node[48].appl 	NumberofFN 	0.21621621621622
scalar RSUExampleScenario.node[48].veinsmobility 	startTime 	115.7
scalar RSUExampleScenario.node[48].veinsmobility 	totalTime 	334.3
scalar RSUExampleScenario.node[48].veinsmobility 	stopTime 	450
scalar RSUExampleScenario.node[48].veinsmobility 	minSpeed 	0
scalar RSUExampleScenario.node[48].veinsmobility 	maxSpeed 	13.999937526549
scalar RSUExampleScenario.node[48].veinsmobility 	totalDistance 	1496.4147571591
scalar RSUExampleScenario.node[48].veinsmobility 	totalCO2Emission 	540.76757202585
scalar RSUExampleScenario.node[49].appl 	meanClusterNodes 	2.25
scalar RSUExampleScenario.node[49].appl 	meanClusterHeadUtility 	4.3677929365754
scalar RSUExampleScenario.node[49].appl 	NumberofCH 	0.21621621621622
scalar RSUExampleScenario.node[49].appl 	NumberofON 	0.54054054054054
scalar RSUExampleScenario.node[49].appl 	NumberofFN 	0.24324324324324
scalar RSUExampleScenario.node[49].veinsmobility 	startTime 	118.1
scalar RSUExampleScenario.node[49].veinsmobility 	totalTime 	331.9
scalar RSUExampleScenario.node[49].veinsmobility 	stopTime 	450
scalar RSUExampleScenario.node[49].veinsmobility 	minSpeed 	0
scalar RSUExampleScenario.node[49].veinsmobility 	maxSpeed 	13.999952922601
scalar RSUExampleScenario.node[49].veinsmobility 	totalDistance 	1462.4463184815
scalar RSUExampleScenario.node[49].veinsmobility 	totalCO2Emission 	538.0949260382
scalar RSUExampleScenario.node[5].appl 	meanClusterNodes 	1.9
scalar RSUExampleScenario.node[5].appl 	meanClusterHeadUtility 	4.0509107244628
scalar RSUExampleScenario.node[5].appl 	NumberofCH 	0.27027027027027
scalar RSUExampleScenario.node[5].appl 	NumberofON 	0.56756756756757
scalar RSUExampleScenario.node[5].appl 	NumberofFN 	0.16216216216216
scalar RSUExampleScenario.node[5].veinsmobility 	startTime 	12.1
scalar RSUExampleScenario.node[5].veinsmobility 	totalTime 	437.9
scalar RSUExampleScenario.node[5].veinsmobility 	stopTime 	450
scalar RSUExampleScenario.node[5].veinsmobility 	minSpeed 	0
scalar RSUExampleScenario.node[5].veinsmobility 	maxSpeed 	13.999873157383
scalar RSUExampleScenario.node[5].veinsmobility 	totalDistance 	2917.3268125863
scalar RSUExampleScenario.node[5].veinsmobility 	totalCO2Emission 	781.82301376666
scalar RSUExampleScenario.node[50].appl 	meanClusterNodes 	2
scalar RSUExampleScenario.node[50].appl 	meanClusterHeadUtility 	5.5730003346479
scalar RSUExampleScenario.node[50].appl 	NumberofCH 	0.16216216216216
scalar RSUExampleScenario.node[50].appl 	NumberofON 	0.78378378378378
scalar RSUExampleScenario.node[50].appl 	NumberofFN 	0.054054054054054
scalar RSUExampleScenario.node[50].veinsmobility 	startTime 	120.6
scalar RSUExampleScenario.node[50].veinsmobility 	totalTime 	329.4
scalar RSUExampleScenario.node[50].veinsmobility 	stopTime 	450
scalar RSUExampleScenario.node[50].veinsmobility 	minSpeed 	0
scalar RSUExampleScenario.node[50].veinsmobility 	maxSpeed 	13.999747306679
scalar RSUExampleScenario.node[50].veinsmobility 	totalDistance 	1430.3981198918
scalar RSUExampleScenario.node[50].veinsmobility 	totalCO2Emission 	535.45928212383
scalar RSUExampleScenario.node[51].appl 	meanClusterNodes 	3
scalar RSUExampleScenario.node[51].appl 	meanClusterHeadUtility 	4.4765980879743
scalar RSUExampleScenario.node[51].appl 	NumberofCH 	0.21621621621622
scalar RSUExampleScenario.node[51].appl 	NumberofON 	0.7027027027027
scalar RSUExampleScenario.node[51].appl 	NumberofFN 	0.081081081081081
scalar RSUExampleScenario.node[51].veinsmobility 	startTime 	123
scalar RSUExampleScenario.node[51].veinsmobility 	totalTime 	327
scalar RSUExampleScenario.node[51].veinsmobility 	stopTime 	450
scalar RSUExampleScenario.node[51].veinsmobility 	minSpeed 	0
scalar RSUExampleScenario.node[51].veinsmobility 	maxSpeed 	13.999627376876
scalar RSUExampleScenario.node[51].veinsmobility 	totalDistance 	1396.9719255817
scalar RSUExampleScenario.node[51].veinsmobility 	totalCO2Emission 	524.53759346597
scalar RSUExampleScenario.node[52].appl 	meanClusterNodes 	2.5
scalar RSUExampleScenario.node[52].appl 	meanClusterHeadUtility 	4.6565509066122
scalar RSUExampleScenario.node[52].appl 	NumberofCH 	0.21621621621622
scalar RSUExampleScenario.node[52].appl 	NumberofON 	0.56756756756757
scalar RSUExampleScenario.node[52].appl 	NumberofFN 	0.21621621621622
scalar RSUExampleScenario.node[52].veinsmobility 	startTime 	125.4
scalar RSUExampleScenario.node[52].veinsmobility 	totalTime 	324.6
scalar RSUExampleScenario.node[52].veinsmobility 	stopTime 	450
scalar RSUExampleScenario.node[52].veinsmobility 	minSpeed 	0
scalar RSUExampleScenario.node[52].veinsmobility 	maxSpeed 	13.999936254597
scalar RSUExampleScenario.node[52].veinsmobility 	totalDistance 	1362.5588013849
scalar RSUExampleScenario.node[52].veinsmobility 	totalCO2Emission 	520.11649047941
scalar RSUExampleScenario.node[53].appl 	meanClusterNodes 	1.8333333333333
scalar RSUExampleScenario.node[53].appl 	meanClusterHeadUtility 	5.9889346538276
scalar RSUExampleScenario.node[53].appl 	NumberofCH 	0.16216216216216
scalar RSUExampleScenario.node[53].appl 	NumberofON 	0.59459459459459
scalar RSUExampleScenario.node[53].appl 	NumberofFN 	0.24324324324324
scalar RSUExampleScenario.node[53].veinsmobility 	startTime 	127.8
scalar RSUExampleScenario.node[53].veinsmobility 	totalTime 	322.2
scalar RSUExampleScenario.node[53].veinsmobility 	stopTime 	450
scalar RSUExampleScenario.node[53].veinsmobility 	minSpeed 	0
scalar RSUExampleScenario.node[53].veinsmobility 	maxSpeed 	13.999999506148
scalar RSUExampleScenario.node[53].veinsmobility 	totalDistance 	1327.691669011
scalar RSUExampleScenario.node[53].veinsmobility 	totalCO2Emission 	514.28184126536
scalar RSUExampleScenario.node[54].appl 	meanClusterNodes 	2.3
scalar RSUExampleScenario.node[54].appl 	meanClusterHeadUtility 	3.1977616787333
scalar RSUExampleScenario.node[54].appl 	NumberofCH 	0.27027027027027
scalar RSUExampleScenario.node[54].appl 	NumberofON 	0.67567567567568
scalar RSUExampleScenario.node[54].appl 	NumberofFN 	0.054054054054054
scalar RSUExampleScenario.node[54].veinsmobility 	startTime 	130.2
scalar RSUExampleScenario.node[54].veinsmobility 	totalTime 	319.8
scalar RSUExampleScenario.node[54].veinsmobility 	stopTime 	450
scalar RSUExampleScenario.node[54].veinsmobility 	minSpeed 	0
scalar RSUExampleScenario.node[54].veinsmobility 	maxSpeed 	13.999829088803
scalar RSUExampleScenario.node[54].veinsmobility 	totalDistance 	1292.4096771849
scalar RSUExampleScenario.node[54].veinsmobility 	totalCO2Emission 	505.68536215696
scalar RSUExampleScenario.node[55].appl 	meanClusterNodes 	1.6
scalar RSUExampleScenario.node[55].appl 	meanClusterHeadUtility 	3.2362064901835
scalar RSUExampleScenario.node[55].appl 	NumberofCH 	0.27027027027027
scalar RSUExampleScenario.node[55].appl 	NumberofON 	0.67567567567568
scalar RSUExampleScenario.node[55].appl 	NumberofFN 	0.054054054054054
scalar RSUExampleScenario.node[55].veinsmobility 	startTime 	132.6
scalar RSUExampleScenario.node[55].veinsmobility 	totalTime 	317.4
scalar RSUExampleScenario.node[55].veinsmobility 	stopTime 	450
scalar RSUExampleScenario.node[55].veinsmobility 	minSpeed 	0
scalar RSUExampleScenario.node[55].veinsmobility 	maxSpeed 	13.999665209858
scalar RSUExampleScenario.node[55].veinsmobility 	totalDistance 	1261.3099373247
scalar RSUExampleScenario.node[55].veinsmobility 	totalCO2Emission 	501.75914116086
scalar RSUExampleScenario.node[56].appl 	meanClusterNodes 	2.75
scalar RSUExampleScenario.node[56].appl 	meanClusterHeadUtility 	3.9239503861236
scalar RSUExampleScenario.node[56].appl 	NumberofCH 	0.21621621621622
scalar RSUExampleScenario.node[56].appl 	NumberofON 	0.64864864864865
scalar RSUExampleScenario.node[56].appl 	NumberofFN 	0.13513513513514
scalar RSUExampleScenario.node[56].veinsmobility 	startTime 	135
scalar RSUExampleScenario.node[56].veinsmobility 	totalTime 	315
scalar RSUExampleScenario.node[56].veinsmobility 	stopTime 	450
scalar RSUExampleScenario.node[56].veinsmobility 	minSpeed 	0
scalar RSUExampleScenario.node[56].veinsmobility 	maxSpeed 	13.999994588417
scalar RSUExampleScenario.node[56].veinsmobility 	totalDistance 	1226.9111889467
scalar RSUExampleScenario.node[56].veinsmobility 	totalCO2Emission 	496.17726687448
scalar RSUExampleScenario.node[57].appl 	meanClusterNodes 	2.75
scalar RSUExampleScenario.node[57].appl 	meanClusterHeadUtility 	4.0025405141411
scalar RSUExampleScenario.node[57].appl 	NumberofCH 	0.21621621621622
scalar RSUExampleScenario.node[57].appl 	NumberofON 	0.75675675675676
scalar RSUExampleScenario.node[57].appl 	NumberofFN 	0.027027027027027
scalar RSUExampleScenario.node[57].veinsmobility 	startTime 	137.4
scalar RSUExampleScenario.node[57].veinsmobility 	totalTime 	312.6
scalar RSUExampleScenario.node[57].veinsmobility 	stopTime 	450
scalar RSUExampleScenario.node[57].veinsmobility 	minSpeed 	0
scalar RSUExampleScenario.node[57].veinsmobility 	maxSpeed 	13.999287190074
scalar RSUExampleScenario.node[57].veinsmobility 	totalDistance 	1193.2449331759
scalar RSUExampleScenario.node[57].veinsmobility 	totalCO2Emission 	490.80625421531
scalar RSUExampleScenario.node[58].appl 	meanClusterNodes 	3.8333333333333
scalar RSUExampleScenario.node[58].appl 	meanClusterHeadUtility 	5.5401589616278
scalar RSUExampleScenario.node[58].appl 	NumberofCH 	0.16216216216216
scalar RSUExampleScenario.node[58].appl 	NumberofON 	0.43243243243243
scalar RSUExampleScenario.node[58].appl 	NumberofFN 	0.40540540540541
scalar RSUExampleScenario.node[58].veinsmobility 	startTime 	139.8
scalar RSUExampleScenario.node[58].veinsmobility 	totalTime 	310.2
scalar RSUExampleScenario.node[58].veinsmobility 	stopTime 	450
scalar RSUExampleScenario.node[58].veinsmobility 	minSpeed 	0
scalar RSUExampleScenario.node[58].veinsmobility 	maxSpeed 	13.99975749013
scalar RSUExampleScenario.node[58].veinsmobility 	totalDistance 	1157.9943614058
scalar RSUExampleScenario.node[58].veinsmobility 	totalCO2Emission 	484.77120675115
scalar RSUExampleScenario.node[59].appl 	meanClusterNodes 	1.8333333333333
scalar RSUExampleScenario.node[59].appl 	meanClusterHeadUtility 	5.3111551147096
scalar RSUExampleScenario.node[59].appl 	NumberofCH 	0.16216216216216
scalar RSUExampleScenario.node[59].appl 	NumberofON 	0.78378378378378
scalar RSUExampleScenario.node[59].appl 	NumberofFN 	0.054054054054054
scalar RSUExampleScenario.node[59].veinsmobility 	startTime 	142.2
scalar RSUExampleScenario.node[59].veinsmobility 	totalTime 	307.8
scalar RSUExampleScenario.node[59].veinsmobility 	stopTime 	450
scalar RSUExampleScenario.node[59].veinsmobility 	minSpeed 	0
scalar RSUExampleScenario.node[59].veinsmobility 	maxSpeed 	13.999733918635
scalar RSUExampleScenario.node[59].veinsmobility 	totalDistance 	1125.5481559985
scalar RSUExampleScenario.node[59].veinsmobility 	totalCO2Emission 	478.9684012879
scalar RSUExampleScenario.node[6].appl 	meanClusterNodes 	2.5
scalar RSUExampleScenario.node[6].appl 	meanClusterHeadUtility 	6.2693089359182
scalar RSUExampleScenario.node[6].appl 	NumberofCH 	0.16216216216216
scalar RSUExampleScenario.node[6].appl 	NumberofON 	0.51351351351351
scalar RSUExampleScenario.node[6].appl 	NumberofFN 	0.32432432432432
scalar RSUExampleScenario.node[6].veinsmobility 	startTime 	14.5
scalar RSUExampleScenario.node[6].veinsmobility 	totalTime 	435.5
scalar RSUExampleScenario.node[6].veinsmobility 	stopTime 	450
scalar RSUExampleScenario.node[6].veinsmobility 	minSpeed 	0
scalar RSUExampleScenario.node[6].veinsmobility 	maxSpeed 	13.9999717248
scalar RSUExampleScenario.node[6].veinsmobility 	totalDistance 	2900.9758203375
scalar RSUExampleScenario.node[6].veinsmobility 	totalCO2Emission 	777.35652005959
scalar RSUExampleScenario.node[60].appl 	meanClusterNodes 	2.6666666666667
scalar RSUExampleScenario.node[60].appl 	meanClusterHeadUtility 	5.7924783734566
scalar RSUExampleScenario.node[60].appl 	NumberofCH 	0.16216216216216
scalar RSUExampleScenario.node[60].appl 	NumberofON 	0.83783783783784
scalar RSUExampleScenario.node[60].appl 	NumberofFN 	0
scalar RSUExampleScenario.node[60].veinsmobility 	startTime 	144.7
scalar RSUExampleScenario.node[60].veinsmobility 	totalTime 	305.3
scalar RSUExampleScenario.node[60].veinsmobility 	stopTime 	450
scalar RSUExampleScenario.node[60].veinsmobility 	minSpeed 	0
scalar RSUExampleScenario.node[60].veinsmobility 	maxSpeed 	13.999961792906
scalar RSUExampleScenario.node[60].veinsmobility 	totalDistance 	1092.8836750909
scalar RSUExampleScenario.node[60].veinsmobility 	totalCO2Emission 	473.47060211617
scalar RSUExampleScenario.node[61].appl 	meanClusterNodes 	2.2
scalar RSUExampleScenario.node[61].appl 	meanClusterHeadUtility 	3.1689586585606
scalar RSUExampleScenario.node[61].appl 	NumberofCH 	0.27027027027027
scalar RSUExampleScenario.node[61].appl 	NumberofON 	0.59459459459459
scalar RSUExampleScenario.node[61].appl 	NumberofFN 	0.13513513513514
scalar RSUExampleScenario.node[61].veinsmobility 	startTime 	147.1
scalar RSUExampleScenario.node[61].veinsmobility 	totalTime 	302.9
scalar RSUExampleScenario.node[61].veinsmobility 	stopTime 	450
scalar RSUExampleScenario.node[61].veinsmobility 	minSpeed 	0
scalar RSUExampleScenario.node[61].veinsmobility 	maxSpeed 	13.999862665955
scalar RSUExampleScenario.node[61].veinsmobility 	totalDistance 	1058.9516674024
scalar RSUExampleScenario.node[61].veinsmobility 	totalCO2Emission 	469.84502613177
scalar RSUExampleScenario.node[62].appl 	meanClusterNodes 	0
scalar RSUExampleScenario.node[62].appl 	meanClusterHeadUtility 	0
scalar RSUExampleScenario.node[62].appl 	NumberofCH 	0.16216216216216
scalar RSUExampleScenario.node[62].appl 	NumberofON 	0
scalar RSUExampleScenario.node[62].appl 	NumberofFN 	0.83783783783784
scalar RSUExampleScenario.node[62].veinsmobility 	startTime 	149.5
scalar RSUExampleScenario.node[62].veinsmobility 	totalTime 	300.5
scalar RSUExampleScenario.node[62].veinsmobility 	stopTime 	450
scalar RSUExampleScenario.node[62].veinsmobility 	minSpeed 	0
scalar RSUExampleScenario.node[62].veinsmobility 	maxSpeed 	13.999004146561
scalar RSUExampleScenario.node[62].veinsmobility 	totalDistance 	1025.2579268148
scalar RSUExampleScenario.node[62].veinsmobility 	totalCO2Emission 	463.12739217373
scalar RSUExampleScenario.node[63].appl 	meanClusterNodes 	2.75
scalar RSUExampleScenario.node[63].appl 	meanClusterHeadUtility 	4.6100539431088
scalar RSUExampleScenario.node[63].appl 	NumberofCH 	0.21621621621622
scalar RSUExampleScenario.node[63].appl 	NumberofON 	0.35135135135135
scalar RSUExampleScenario.node[63].appl 	NumberofFN 	0.43243243243243
scalar RSUExampleScenario.node[63].veinsmobility 	startTime 	151.9
scalar RSUExampleScenario.node[63].veinsmobility 	totalTime 	298.1
scalar RSUExampleScenario.node[63].veinsmobility 	stopTime 	450
scalar RSUExampleScenario.node[63].veinsmobility 	minSpeed 	0
scalar RSUExampleScenario.node[63].veinsmobility 	maxSpeed 	13.999618216997
scalar RSUExampleScenario.node[63].veinsmobility 	totalDistance 	986.09474261868
scalar RSUExampleScenario.node[63].veinsmobility 	totalCO2Emission 	449.78366495684
scalar RSUExampleScenario.node[64].appl 	meanClusterNodes 	1.375
scalar RSUExampleScenario.node[64].appl 	meanClusterHeadUtility 	4.5744706811736
scalar RSUExampleScenario.node[64].appl 	NumberofCH 	0.21621621621622
scalar RSUExampleScenario.node[64].appl 	NumberofON 	0.7027027027027
scalar RSUExampleScenario.node[64].appl 	NumberofFN 	0.081081081081081
scalar RSUExampleScenario.node[64].veinsmobility 	startTime 	154.3
scalar RSUExampleScenario.node[64].veinsmobility 	totalTime 	295.7
scalar RSUExampleScenario.node[64].veinsmobility 	stopTime 	450
scalar RSUExampleScenario.node[64].veinsmobility 	minSpeed 	0
scalar RSUExampleScenario.node[64].veinsmobility 	maxSpeed 	13.999435824156
scalar RSUExampleScenario.node[64].veinsmobility 	totalDistance 	954.82995356707
scalar RSUExampleScenario.node[64].veinsmobility 	totalCO2Emission 	433.87278207703
scalar RSUExampleScenario.node[65].appl 	meanClusterNodes 	2.125
scalar RSUExampleScenario.node[65].appl 	meanClusterHeadUtility 	4.5926572764099
scalar RSUExampleScenario.node[65].appl 	NumberofCH 	0.21621621621622
scalar RSUExampleScenario.node[65].appl 	NumberofON 	0.32432432432432
scalar RSUExampleScenario.node[65].appl 	NumberofFN 	0.45945945945946
scalar RSUExampleScenario.node[65].veinsmobility 	startTime 	156.7
scalar RSUExampleScenario.node[65].veinsmobility 	totalTime 	293.3
scalar RSUExampleScenario.node[65].veinsmobility 	stopTime 	450
scalar RSUExampleScenario.node[65].veinsmobility 	minSpeed 	0
scalar RSUExampleScenario.node[65].veinsmobility 	maxSpeed 	13.999755218094
scalar RSUExampleScenario.node[65].veinsmobility 	totalDistance 	940.71782985223
scalar RSUExampleScenario.node[65].veinsmobility 	totalCO2Emission 	425.92127464044
scalar RSUExampleScenario.node[66].appl 	meanClusterNodes 	3.75
scalar RSUExampleScenario.node[66].appl 	meanClusterHeadUtility 	4.0627011576089
scalar RSUExampleScenario.node[66].appl 	NumberofCH 	0.21621621621622
scalar RSUExampleScenario.node[66].appl 	NumberofON 	0.32432432432432
scalar RSUExampleScenario.node[66].appl 	NumberofFN 	0.45945945945946
scalar RSUExampleScenario.node[66].veinsmobility 	startTime 	159.1
scalar RSUExampleScenario.node[66].veinsmobility 	totalTime 	290.9
scalar RSUExampleScenario.node[66].veinsmobility 	stopTime 	450
scalar RSUExampleScenario.node[66].veinsmobility 	minSpeed 	0
scalar RSUExampleScenario.node[66].veinsmobility 	maxSpeed 	13.999945988993
scalar RSUExampleScenario.node[66].veinsmobility 	totalDistance 	928.55068987374
scalar RSUExampleScenario.node[66].veinsmobility 	totalCO2Emission 	425.04072602411
scalar RSUExampleScenario.node[67].appl 	meanClusterNodes 	1.5714285714286
scalar RSUExampleScenario.node[67].appl 	meanClusterHeadUtility 	4.6943634992151
scalar RSUExampleScenario.node[67].appl 	NumberofCH 	0.18918918918919
scalar RSUExampleScenario.node[67].appl 	NumberofON 	0.72972972972973
scalar RSUExampleScenario.node[67].appl 	NumberofFN 	0.081081081081081
scalar RSUExampleScenario.node[67].veinsmobility 	startTime 	161.5
scalar RSUExampleScenario.node[67].veinsmobility 	totalTime 	288.5
scalar RSUExampleScenario.node[67].veinsmobility 	stopTime 	450
scalar RSUExampleScenario.node[67].veinsmobility 	minSpeed 	0
scalar RSUExampleScenario.node[67].veinsmobility 	maxSpeed 	13.999911176846
scalar RSUExampleScenario.node[67].veinsmobility 	totalDistance 	913.89759169027
scalar RSUExampleScenario.node[67].veinsmobility 	totalCO2Emission 	422.16097025817
scalar RSUExampleScenario.node[68].appl 	meanClusterNodes 	3.6666666666667
scalar RSUExampleScenario.node[68].appl 	meanClusterHeadUtility 	6.5328018912302
scalar RSUExampleScenario.node[68].appl 	NumberofCH 	0.16216216216216
scalar RSUExampleScenario.node[68].appl 	NumberofON 	0.37837837837838
scalar RSUExampleScenario.node[68].appl 	NumberofFN 	0.45945945945946
scalar RSUExampleScenario.node[68].veinsmobility 	startTime 	163.9
scalar RSUExampleScenario.node[68].veinsmobility 	totalTime 	286.1
scalar RSUExampleScenario.node[68].veinsmobility 	stopTime 	450
scalar RSUExampleScenario.node[68].veinsmobility 	minSpeed 	0
scalar RSUExampleScenario.node[68].veinsmobility 	maxSpeed 	13.999867111687
scalar RSUExampleScenario.node[68].veinsmobility 	totalDistance 	894.15555663442
scalar RSUExampleScenario.node[68].veinsmobility 	totalCO2Emission 	420.2990623758
scalar RSUExampleScenario.node[69].appl 	meanClusterNodes 	2.625
scalar RSUExampleScenario.node[69].appl 	meanClusterHeadUtility 	4.9276131807968
scalar RSUExampleScenario.node[69].appl 	NumberofCH 	0.21621621621622
scalar RSUExampleScenario.node[69].appl 	NumberofON 	0.67567567567568
scalar RSUExampleScenario.node[69].appl 	NumberofFN 	0.10810810810811
scalar RSUExampleScenario.node[69].veinsmobility 	startTime 	166.3
scalar RSUExampleScenario.node[69].veinsmobility 	totalTime 	283.7
scalar RSUExampleScenario.node[69].veinsmobility 	stopTime 	450
scalar RSUExampleScenario.node[69].veinsmobility 	minSpeed 	0
scalar RSUExampleScenario.node[69].veinsmobility 	maxSpeed 	13.99976407036
scalar RSUExampleScenario.node[69].veinsmobility 	totalDistance 	861.25244032769
scalar RSUExampleScenario.node[69].veinsmobility 	totalCO2Emission 	414.89059652858
scalar RSUExampleScenario.node[7].appl 	meanClusterNodes 	3
scalar RSUExampleScenario.node[7].appl 	meanClusterHeadUtility 	6.8807180995547
scalar RSUExampleScenario.node[7].appl 	NumberofCH 	0.16216216216216
scalar RSUExampleScenario.node[7].appl 	NumberofON 	0.7027027027027
scalar RSUExampleScenario.node[7].appl 	NumberofFN 	0.13513513513514
scalar RSUExampleScenario.node[7].veinsmobility 	startTime 	16.9
scalar RSUExampleScenario.node[7].veinsmobility 	totalTime 	433.1
scalar RSUExampleScenario.node[7].veinsmobility 	stopTime 	450
scalar RSUExampleScenario.node[7].veinsmobility 	minSpeed 	0
scalar RSUExampleScenario.node[7].veinsmobility 	maxSpeed 	13.999954499563
scalar RSUExampleScenario.node[7].veinsmobility 	totalDistance 	2889.1195553583
scalar RSUExampleScenario.node[7].veinsmobility 	totalCO2Emission 	777.34231062041
scalar RSUExampleScenario.node[70].appl 	meanClusterNodes 	2.25
scalar RSUExampleScenario.node[70].appl 	meanClusterHeadUtility 	4.1353820539434
scalar RSUExampleScenario.node[70].appl 	NumberofCH 	0.21621621621622
scalar RSUExampleScenario.node[70].appl 	NumberofON 	0.78378378378378
scalar RSUExampleScenario.node[70].appl 	NumberofFN 	0
scalar RSUExampleScenario.node[70].veinsmobility 	startTime 	168.8
scalar RSUExampleScenario.node[70].veinsmobility 	totalTime 	281.2
scalar RSUExampleScenario.node[70].veinsmobility 	stopTime 	450
scalar RSUExampleScenario.node[70].veinsmobility 	minSpeed 	0
scalar RSUExampleScenario.node[70].veinsmobility 	maxSpeed 	13.999626123721
scalar RSUExampleScenario.node[70].veinsmobility 	totalDistance 	828.55546162608
scalar RSUExampleScenario.node[70].veinsmobility 	totalCO2Emission 	406.20500511858
scalar RSUExampleScenario.node[71].appl 	meanClusterNodes 	2.9
scalar RSUExampleScenario.node[71].appl 	meanClusterHeadUtility 	3.7986904299043
scalar RSUExampleScenario.node[71].appl 	NumberofCH 	0.27027027027027
scalar RSUExampleScenario.node[71].appl 	NumberofON 	0.56756756756757
scalar RSUExampleScenario.node[71].appl 	NumberofFN 	0.16216216216216
scalar RSUExampleScenario.node[71].veinsmobility 	startTime 	171.2
scalar RSUExampleScenario.node[71].veinsmobility 	totalTime 	278.8
scalar RSUExampleScenario.node[71].veinsmobility 	stopTime 	450
scalar RSUExampleScenario.node[71].veinsmobility 	minSpeed 	0
scalar RSUExampleScenario.node[71].veinsmobility 	maxSpeed 	13.999819225466
scalar RSUExampleScenario.node[71].veinsmobility 	totalDistance 	792.93220401203
scalar RSUExampleScenario.node[71].veinsmobility 	totalCO2Emission 	401.33852870733
scalar RSUExampleScenario.node[72].appl 	meanClusterNodes 	2.6666666666667
scalar RSUExampleScenario.node[72].appl 	meanClusterHeadUtility 	6.0050613045804
scalar RSUExampleScenario.node[72].appl 	NumberofCH 	0.16216216216216
scalar RSUExampleScenario.node[72].appl 	NumberofON 	0.64864864864865
scalar RSUExampleScenario.node[72].appl 	NumberofFN 	0.18918918918919
scalar RSUExampleScenario.node[72].veinsmobility 	startTime 	173.6
scalar RSUExampleScenario.node[72].veinsmobility 	totalTime 	276.4
scalar RSUExampleScenario.node[72].veinsmobility 	stopTime 	450
scalar RSUExampleScenario.node[72].veinsmobility 	minSpeed 	0
scalar RSUExampleScenario.node[72].veinsmobility 	maxSpeed 	13.999930924193
scalar RSUExampleScenario.node[72].veinsmobility 	totalDistance 	760.03903442321
scalar RSUExampleScenario.node[72].veinsmobility 	totalCO2Emission 	396.85179811562
scalar RSUExampleScenario.node[73].appl 	meanClusterNodes 	1.7
scalar RSUExampleScenario.node[73].appl 	meanClusterHeadUtility 	3.2331677305246
scalar RSUExampleScenario.node[73].appl 	NumberofCH 	0.27027027027027
scalar RSUExampleScenario.node[73].appl 	NumberofON 	0.48648648648649
scalar RSUExampleScenario.node[73].appl 	NumberofFN 	0.24324324324324
scalar RSUExampleScenario.node[73].veinsmobility 	startTime 	176
scalar RSUExampleScenario.node[73].veinsmobility 	totalTime 	274
scalar RSUExampleScenario.node[73].veinsmobility 	stopTime 	450
scalar RSUExampleScenario.node[73].veinsmobility 	minSpeed 	0
scalar RSUExampleScenario.node[73].veinsmobility 	maxSpeed 	13.99983156987
scalar RSUExampleScenario.node[73].veinsmobility 	totalDistance 	726.63839980299
scalar RSUExampleScenario.node[73].veinsmobility 	totalCO2Emission 	391.86013942764
scalar RSUExampleScenario.node[74].appl 	meanClusterNodes 	2.625
scalar RSUExampleScenario.node[74].appl 	meanClusterHeadUtility 	4.440637802717
scalar RSUExampleScenario.node[74].appl 	NumberofCH 	0.21621621621622
scalar RSUExampleScenario.node[74].appl 	NumberofON 	0.59459459459459
scalar RSUExampleScenario.node[74].appl 	NumberofFN 	0.18918918918919
scalar RSUExampleScenario.node[74].veinsmobility 	startTime 	178.4
scalar RSUExampleScenario.node[74].veinsmobility 	totalTime 	271.6
scalar RSUExampleScenario.node[74].veinsmobility 	stopTime 	450
scalar RSUExampleScenario.node[74].veinsmobility 	minSpeed 	0
scalar RSUExampleScenario.node[74].veinsmobility 	maxSpeed 	13.999287993689
scalar RSUExampleScenario.node[74].veinsmobility 	totalDistance 	690.51187332348
scalar RSUExampleScenario.node[74].veinsmobility 	totalCO2Emission 	385.67611789011
scalar RSUExampleScenario.node[75].appl 	meanClusterNodes 	2.25
scalar RSUExampleScenario.node[75].appl 	meanClusterHeadUtility 	4.2669539244803
scalar RSUExampleScenario.node[75].appl 	NumberofCH 	0.21621621621622
scalar RSUExampleScenario.node[75].appl 	NumberofON 	0.67567567567568
scalar RSUExampleScenario.node[75].appl 	NumberofFN 	0.10810810810811
scalar RSUExampleScenario.node[75].veinsmobility 	startTime 	180.8
scalar RSUExampleScenario.node[75].veinsmobility 	totalTime 	269.2
scalar RSUExampleScenario.node[75].veinsmobility 	stopTime 	450
scalar RSUExampleScenario.node[75].veinsmobility 	minSpeed 	0
scalar RSUExampleScenario.node[75].veinsmobility 	maxSpeed 	13.999875009088
scalar RSUExampleScenario.node[75].veinsmobility 	totalDistance 	657.95813435973
scalar RSUExampleScenario.node[75].veinsmobility 	totalCO2Emission 	380.95258429936
scalar RSUExampleScenario.node[76].appl 	meanClusterNodes 	1.375
scalar RSUExampleScenario.node[76].appl 	meanClusterHeadUtility 	3.9181639659107
scalar RSUExampleScenario.node[76].appl 	NumberofCH 	0.21621621621622
scalar RSUExampleScenario.node[76].appl 	NumberofON 	0.72972972972973
scalar RSUExampleScenario.node[76].appl 	NumberofFN 	0.054054054054054
scalar RSUExampleScenario.node[76].veinsmobility 	startTime 	183.2
scalar RSUExampleScenario.node[76].veinsmobility 	totalTime 	266.8
scalar RSUExampleScenario.node[76].veinsmobility 	stopTime 	450
scalar RSUExampleScenario.node[76].veinsmobility 	minSpeed 	0
scalar RSUExampleScenario.node[76].veinsmobility 	maxSpeed 	13.999226367529
scalar RSUExampleScenario.node[76].veinsmobility 	totalDistance 	623.60996334412
scalar RSUExampleScenario.node[76].veinsmobility 	totalCO2Emission 	374.37889794775
scalar RSUExampleScenario.node[77].appl 	meanClusterNodes 	3.5
scalar RSUExampleScenario.node[77].appl 	meanClusterHeadUtility 	6.0612225865786
scalar RSUExampleScenario.node[77].appl 	NumberofCH 	0.16216216216216
scalar RSUExampleScenario.node[77].appl 	NumberofON 	0.75675675675676
scalar RSUExampleScenario.node[77].appl 	NumberofFN 	0.081081081081081
scalar RSUExampleScenario.node[77].veinsmobility 	startTime 	185.6
scalar RSUExampleScenario.node[77].veinsmobility 	totalTime 	264.4
scalar RSUExampleScenario.node[77].veinsmobility 	stopTime 	450
scalar RSUExampleScenario.node[77].veinsmobility 	minSpeed 	0
scalar RSUExampleScenario.node[77].veinsmobility 	maxSpeed 	13.999561211669
scalar RSUExampleScenario.node[77].veinsmobility 	totalDistance 	590.33473414242
scalar RSUExampleScenario.node[77].veinsmobility 	totalCO2Emission 	367.44444792955
scalar RSUExampleScenario.node[78].appl 	meanClusterNodes 	3
scalar RSUExampleScenario.node[78].appl 	meanClusterHeadUtility 	4.7908618205831
scalar RSUExampleScenario.node[78].appl 	NumberofCH 	0.21621621621622
scalar RSUExampleScenario.node[78].appl 	NumberofON 	0.59459459459459
scalar RSUExampleScenario.node[78].appl 	NumberofFN 	0.18918918918919
scalar RSUExampleScenario.node[78].veinsmobility 	startTime 	188
scalar RSUExampleScenario.node[78].veinsmobility 	totalTime 	262
scalar RSUExampleScenario.node[78].veinsmobility 	stopTime 	450
scalar RSUExampleScenario.node[78].veinsmobility 	minSpeed 	0
scalar RSUExampleScenario.node[78].veinsmobility 	maxSpeed 	13.999197963539
scalar RSUExampleScenario.node[78].veinsmobility 	totalDistance 	556.63440617221
scalar RSUExampleScenario.node[78].veinsmobility 	totalCO2Emission 	361.95046077609
scalar RSUExampleScenario.node[79].appl 	meanClusterNodes 	2.625
scalar RSUExampleScenario.node[79].appl 	meanClusterHeadUtility 	4.2076514261988
scalar RSUExampleScenario.node[79].appl 	NumberofCH 	0.21621621621622
scalar RSUExampleScenario.node[79].appl 	NumberofON 	0.40540540540541
scalar RSUExampleScenario.node[79].appl 	NumberofFN 	0.37837837837838
scalar RSUExampleScenario.node[79].veinsmobility 	startTime 	190.4
scalar RSUExampleScenario.node[79].veinsmobility 	totalTime 	259.6
scalar RSUExampleScenario.node[79].veinsmobility 	stopTime 	450
scalar RSUExampleScenario.node[79].veinsmobility 	minSpeed 	0
scalar RSUExampleScenario.node[79].veinsmobility 	maxSpeed 	13.999692973651
scalar RSUExampleScenario.node[79].veinsmobility 	totalDistance 	524.21096753045
scalar RSUExampleScenario.node[79].veinsmobility 	totalCO2Emission 	357.36558772528
scalar RSUExampleScenario.node[8].appl 	meanClusterNodes 	2
scalar RSUExampleScenario.node[8].appl 	meanClusterHeadUtility 	5.3362123668698
scalar RSUExampleScenario.node[8].appl 	NumberofCH 	0.18918918918919
scalar RSUExampleScenario.node[8].appl 	NumberofON 	0.7027027027027
scalar RSUExampleScenario.node[8].appl 	NumberofFN 	0.10810810810811
scalar RSUExampleScenario.node[8].veinsmobility 	startTime 	19.3
scalar RSUExampleScenario.node[8].veinsmobility 	totalTime 	430.7
scalar RSUExampleScenario.node[8].veinsmobility 	stopTime 	450
scalar RSUExampleScenario.node[8].veinsmobility 	minSpeed 	0
scalar RSUExampleScenario.node[8].veinsmobility 	maxSpeed 	13.999990104185
scalar RSUExampleScenario.node[8].veinsmobility 	totalDistance 	2856.2086316009
scalar RSUExampleScenario.node[8].veinsmobility 	totalCO2Emission 	769.21106469575
scalar RSUExampleScenario.node[80].appl 	meanClusterNodes 	1.5
scalar RSUExampleScenario.node[80].appl 	meanClusterHeadUtility 	4.191499666669
scalar RSUExampleScenario.node[80].appl 	NumberofCH 	0.21621621621622
scalar RSUExampleScenario.node[80].appl 	NumberofON 	0.59459459459459
scalar RSUExampleScenario.node[80].appl 	NumberofFN 	0.18918918918919
scalar RSUExampleScenario.node[80].veinsmobility 	startTime 	192.9
scalar RSUExampleScenario.node[80].veinsmobility 	totalTime 	257.1
scalar RSUExampleScenario.node[80].veinsmobility 	stopTime 	450
scalar RSUExampleScenario.node[80].veinsmobility 	minSpeed 	0
scalar RSUExampleScenario.node[80].veinsmobility 	maxSpeed 	13.999911886933
scalar RSUExampleScenario.node[80].veinsmobility 	totalDistance 	488.26775400367
scalar RSUExampleScenario.node[80].veinsmobility 	totalCO2Emission 	351.43549130722
scalar RSUExampleScenario.node[81].appl 	meanClusterNodes 	1.125
scalar RSUExampleScenario.node[81].appl 	meanClusterHeadUtility 	4.2441446096489
scalar RSUExampleScenario.node[81].appl 	NumberofCH 	0.21621621621622
scalar RSUExampleScenario.node[81].appl 	NumberofON 	0.75675675675676
scalar RSUExampleScenario.node[81].appl 	NumberofFN 	0.027027027027027
scalar RSUExampleScenario.node[81].veinsmobility 	startTime 	195.3
scalar RSUExampleScenario.node[81].veinsmobility 	totalTime 	254.7
scalar RSUExampleScenario.node[81].veinsmobility 	stopTime 	450
scalar RSUExampleScenario.node[81].veinsmobility 	minSpeed 	0
scalar RSUExampleScenario.node[81].veinsmobility 	maxSpeed 	13.999729886758
scalar RSUExampleScenario.node[81].veinsmobility 	totalDistance 	454.92057971244
scalar RSUExampleScenario.node[81].veinsmobility 	totalCO2Emission 	345.37081195651
scalar RSUExampleScenario.node[82].appl 	meanClusterNodes 	1.875
scalar RSUExampleScenario.node[82].appl 	meanClusterHeadUtility 	4.4391615765619
scalar RSUExampleScenario.node[82].appl 	NumberofCH 	0.21621621621622
scalar RSUExampleScenario.node[82].appl 	NumberofON 	0.59459459459459
scalar RSUExampleScenario.node[82].appl 	NumberofFN 	0.18918918918919
scalar RSUExampleScenario.node[82].veinsmobility 	startTime 	197.7
scalar RSUExampleScenario.node[82].veinsmobility 	totalTime 	252.3
scalar RSUExampleScenario.node[82].veinsmobility 	stopTime 	450
scalar RSUExampleScenario.node[82].veinsmobility 	minSpeed 	0
scalar RSUExampleScenario.node[82].veinsmobility 	maxSpeed 	13.998983662794
scalar RSUExampleScenario.node[82].veinsmobility 	totalDistance 	422.37523286676
scalar RSUExampleScenario.node[82].veinsmobility 	totalCO2Emission 	339.68388128021
scalar RSUExampleScenario.node[83].appl 	meanClusterNodes 	3.375
scalar RSUExampleScenario.node[83].appl 	meanClusterHeadUtility 	4.3865021575885
scalar RSUExampleScenario.node[83].appl 	NumberofCH 	0.21621621621622
scalar RSUExampleScenario.node[83].appl 	NumberofON 	0.54054054054054
scalar RSUExampleScenario.node[83].appl 	NumberofFN 	0.24324324324324
scalar RSUExampleScenario.node[83].veinsmobility 	startTime 	200.1
scalar RSUExampleScenario.node[83].veinsmobility 	totalTime 	249.9
scalar RSUExampleScenario.node[83].veinsmobility 	stopTime 	450
scalar RSUExampleScenario.node[83].veinsmobility 	minSpeed 	0
scalar RSUExampleScenario.node[83].veinsmobility 	maxSpeed 	13.99524569893
scalar RSUExampleScenario.node[83].veinsmobility 	totalDistance 	389.42052596855
scalar RSUExampleScenario.node[83].veinsmobility 	totalCO2Emission 	332.66031264748
scalar RSUExampleScenario.node[84].appl 	meanClusterNodes 	2.875
scalar RSUExampleScenario.node[84].appl 	meanClusterHeadUtility 	4.2782992234601
scalar RSUExampleScenario.node[84].appl 	NumberofCH 	0.21621621621622
scalar RSUExampleScenario.node[84].appl 	NumberofON 	0.54054054054054
scalar RSUExampleScenario.node[84].appl 	NumberofFN 	0.24324324324324
scalar RSUExampleScenario.node[84].veinsmobility 	startTime 	202.5
scalar RSUExampleScenario.node[84].veinsmobility 	totalTime 	247.5
scalar RSUExampleScenario.node[84].veinsmobility 	stopTime 	450
scalar RSUExampleScenario.node[84].veinsmobility 	minSpeed 	0
scalar RSUExampleScenario.node[84].veinsmobility 	maxSpeed 	13.995071552994
scalar RSUExampleScenario.node[84].veinsmobility 	totalDistance 	355.20897831837
scalar RSUExampleScenario.node[84].veinsmobility 	totalCO2Emission 	328.45163149243
scalar RSUExampleScenario.node[85].appl 	meanClusterNodes 	3.1428571428571
scalar RSUExampleScenario.node[85].appl 	meanClusterHeadUtility 	4.7293966847161
scalar RSUExampleScenario.node[85].appl 	NumberofCH 	0.18918918918919
scalar RSUExampleScenario.node[85].appl 	NumberofON 	0.37837837837838
scalar RSUExampleScenario.node[85].appl 	NumberofFN 	0.43243243243243
scalar RSUExampleScenario.node[85].veinsmobility 	startTime 	204.9
scalar RSUExampleScenario.node[85].veinsmobility 	totalTime 	245.1
scalar RSUExampleScenario.node[85].veinsmobility 	stopTime 	450
scalar RSUExampleScenario.node[85].veinsmobility 	minSpeed 	0
scalar RSUExampleScenario.node[85].veinsmobility 	maxSpeed 	13.999605908704
scalar RSUExampleScenario.node[85].veinsmobility 	totalDistance 	322.57783923828
scalar RSUExampleScenario.node[85].veinsmobility 	totalCO2Emission 	322.58245364719
scalar RSUExampleScenario.node[86].appl 	meanClusterNodes 	2.375
scalar RSUExampleScenario.node[86].appl 	meanClusterHeadUtility 	3.9481532006048
scalar RSUExampleScenario.node[86].appl 	NumberofCH 	0.21621621621622
scalar RSUExampleScenario.node[86].appl 	NumberofON 	0.64864864864865
scalar RSUExampleScenario.node[86].appl 	NumberofFN 	0.13513513513514
scalar RSUExampleScenario.node[86].veinsmobility 	startTime 	207.3
scalar RSUExampleScenario.node[86].veinsmobility 	totalTime 	242.7
scalar RSUExampleScenario.node[86].veinsmobility 	stopTime 	450
scalar RS