version 2
run statisticRVV-20-20150327-01:42:43-10572
attr c 16
attr configname statisticRVV
attr datetime 20150327-01:42:43
attr experiment statisticRVV
attr inifile omnetpp.ini
attr iterationvars "$sc=\"erlangen-low.launchd.xml\", $p=1/15, $c=16"
attr iterationvars2 "$sc=\"erlangen-low.launchd.xml\", $p=1/15, $c=16, $repetition=0"
attr measurement "$sc=\"erlangen-low.launchd.xml\", $p=1/15, $c=16"
attr network RSUExampleScenario
attr p 1/15
attr processid 10572
attr repetition 0
attr replication #0
attr resultdir results
attr runnumber 20
attr sc "\"erlangen-low.launchd.xml\""
attr seedset 20

scalar . 	c 	16
scalar RSUExampleScenario.node[0].veinsmobility 	startTime 	0.1
scalar RSUExampleScenario.node[0].veinsmobility 	totalTime 	227
scalar RSUExampleScenario.node[0].veinsmobility 	stopTime 	227.2
scalar RSUExampleScenario.node[0].veinsmobility 	minSpeed 	0.25235429966287
scalar RSUExampleScenario.node[0].veinsmobility 	maxSpeed 	18.999988420862
scalar RSUExampleScenario.node[0].veinsmobility 	totalDistance 	3409.189219921
scalar RSUExampleScenario.node[0].veinsmobility 	totalCO2Emission 	706.50035343586
scalar RSUExampleScenario.node[1].veinsmobility 	startTime 	6.1
scalar RSUExampleScenario.node[1].veinsmobility 	totalTime 	227
scalar RSUExampleScenario.node[1].veinsmobility 	stopTime 	233.2
scalar RSUExampleScenario.node[1].veinsmobility 	minSpeed 	0.25251280283858
scalar RSUExampleScenario.node[1].veinsmobility 	maxSpeed 	18.999297216646
scalar RSUExampleScenario.node[1].veinsmobility 	totalDistance 	3409.4251957574
scalar RSUExampleScenario.node[1].veinsmobility 	totalCO2Emission 	706.52094686117
scalar RSUExampleScenario.node[2].veinsmobility 	startTime 	12.1
scalar RSUExampleScenario.node[2].veinsmobility 	totalTime 	226.9
scalar RSUExampleScenario.node[2].veinsmobility 	stopTime 	239.1
scalar RSUExampleScenario.node[2].veinsmobility 	minSpeed 	0.24909437206388
scalar RSUExampleScenario.node[2].veinsmobility 	maxSpeed 	18.999934989638
scalar RSUExampleScenario.node[2].veinsmobility 	totalDistance 	3409.2072359205
scalar RSUExampleScenario.node[2].veinsmobility 	totalCO2Emission 	705.06349322334
scalar RSUExampleScenario.node[3].veinsmobility 	startTime 	18.1
scalar RSUExampleScenario.node[3].veinsmobility 	totalTime 	227.1
scalar RSUExampleScenario.node[3].veinsmobility 	stopTime 	245.3
scalar RSUExampleScenario.node[3].veinsmobility 	minSpeed 	0.25592370207934
scalar RSUExampleScenario.node[3].veinsmobility 	maxSpeed 	18.999810194469
scalar RSUExampleScenario.node[3].veinsmobility 	totalDistance 	3409.382332587
scalar RSUExampleScenario.node[3].veinsmobility 	totalCO2Emission 	705.09580564578
scalar RSUExampleScenario.node[4].veinsmobility 	startTime 	24.1
scalar RSUExampleScenario.node[4].veinsmobility 	totalTime 	227
scalar RSUExampleScenario.node[4].veinsmobility 	stopTime 	251.2
scalar RSUExampleScenario.node[4].veinsmobility 	minSpeed 	0.24749082089844
scalar RSUExampleScenario.node[4].veinsmobility 	maxSpeed 	18.999958634472
scalar RSUExampleScenario.node[4].veinsmobility 	totalDistance 	3409.4591193675
scalar RSUExampleScenario.node[4].veinsmobility 	totalCO2Emission 	705.5930165562
scalar RSUExampleScenario.node[5].veinsmobility 	startTime 	30.1
scalar RSUExampleScenario.node[5].veinsmobility 	totalTime 	227
scalar RSUExampleScenario.node[5].veinsmobility 	stopTime 	257.2
scalar RSUExampleScenario.node[5].veinsmobility 	minSpeed 	0.25910917952191
scalar RSUExampleScenario.node[5].veinsmobility 	maxSpeed 	18.999762631147
scalar RSUExampleScenario.node[5].veinsmobility 	totalDistance 	3409.6635685069
scalar RSUExampleScenario.node[5].veinsmobility 	totalCO2Emission 	707.57960215054
scalar RSUExampleScenario.node[6].veinsmobility 	startTime 	36.1
scalar RSUExampleScenario.node[6].veinsmobility 	totalTime 	226.8
scalar RSUExampleScenario.node[6].veinsmobility 	stopTime 	263
scalar RSUExampleScenario.node[6].veinsmobility 	minSpeed 	0.25530550082936
scalar RSUExampleScenario.node[6].veinsmobility 	maxSpeed 	18.999638344722
scalar RSUExampleScenario.node[6].veinsmobility 	totalDistance 	3409.4554753061
scalar RSUExampleScenario.node[6].veinsmobility 	totalCO2Emission 	704.48475211488
scalar RSUExampleScenario.node[7].veinsmobility 	startTime 	42.1
scalar RSUExampleScenario.node[7].veinsmobility 	totalTime 	227
scalar RSUExampleScenario.node[7].veinsmobility 	stopTime 	269.2
scalar RSUExampleScenario.node[7].veinsmobility 	minSpeed 	0.25857883886131
scalar RSUExampleScenario.node[7].veinsmobility 	maxSpeed 	18.999397281692
scalar RSUExampleScenario.node[7].veinsmobility 	totalDistance 	3409.9290531452
scalar RSUExampleScenario.node[7].veinsmobility 	totalCO2Emission 	709.56200608197
scalar RSUExampleScenario.node[8].veinsmobility 	startTime 	48.1
scalar RSUExampleScenario.node[8].veinsmobility 	totalTime 	227
scalar RSUExampleScenario.node[8].veinsmobility 	stopTime 	275.2
scalar RSUExampleScenario.node[8].veinsmobility 	minSpeed 	0.25016525625321
scalar RSUExampleScenario.node[8].veinsmobility 	maxSpeed 	18.999668819043
scalar RSUExampleScenario.node[8].veinsmobility 	totalDistance 	3409.6050375103
scalar RSUExampleScenario.node[8].veinsmobility 	totalCO2Emission 	705.23407718946
scalar RSUExampleScenario.node[9].veinsmobility 	startTime 	54.1
scalar RSUExampleScenario.node[9].veinsmobility 	totalTime 	227
scalar RSUExampleScenario.node[9].veinsmobility 	stopTime 	281.2
scalar RSUExampleScenario.node[9].veinsmobility 	minSpeed 	0.25287939567189
scalar RSUExampleScenario.node[9].veinsmobility 	maxSpeed 	18.999703460084
scalar RSUExampleScenario.node[9].veinsmobility 	totalDistance 	3409.5836946375
scalar RSUExampleScenario.node[9].veinsmobility 	totalCO2Emission 	699.86794533381
scalar RSUExampleScenario.node[10].veinsmobility 	startTime 	60.1
scalar RSUExampleScenario.node[10].veinsmobility 	totalTime 	227
scalar RSUExampleScenario.node[10].veinsmobility 	stopTime 	287.2
scalar RSUExampleScenario.node[10].veinsmobility 	minSpeed 	0.25083748624148
scalar RSUExampleScenario.node[10].veinsmobility 	maxSpeed 	18.999850443108
scalar RSUExampleScenario.node[10].veinsmobility 	totalDistance 	3409.174969892
scalar RSUExampleScenario.node[10].veinsmobility 	totalCO2Emission 	709.82245701354
scalar RSUExampleScenario.node[11].veinsmobility 	startTime 	66.1
scalar RSUExampleScenario.node[11].veinsmobility 	totalTime 	226.9
scalar RSUExampleScenario.node[11].veinsmobility 	stopTime 	293.1
scalar RSUExampleScenario.node[11].veinsmobility 	minSpeed 	0.25268032132718
scalar RSUExampleScenario.node[11].veinsmobility 	maxSpeed 	18.999514232005
scalar RSUExampleScenario.node[11].veinsmobility 	totalDistance 	3409.6386284554
scalar RSUExampleScenario.node[11].veinsmobility 	totalCO2Emission 	706.46587407615
scalar RSUExampleScenario.node[12].veinsmobility 	startTime 	72.1
scalar RSUExampleScenario.node[12].veinsmobility 	totalTime 	227
scalar RSUExampleScenario.node[12].veinsmobility 	stopTime 	299.2
scalar RSUExampleScenario.node[12].veinsmobility 	minSpeed 	0.25084652603813
scalar RSUExampleScenario.node[12].veinsmobility 	maxSpeed 	18.999875739636
scalar RSUExampleScenario.node[12].veinsmobility 	totalDistance 	3409.4638541147
scalar RSUExampleScenario.node[12].veinsmobility 	totalCO2Emission 	706.81149692839
scalar RSUExampleScenario.node[13].veinsmobility 	startTime 	78.1
scalar RSUExampleScenario.node[13].veinsmobility 	totalTime 	226.7
scalar RSUExampleScenario.node[13].veinsmobility 	stopTime 	304.9
scalar RSUExampleScenario.node[13].veinsmobility 	minSpeed 	0.25900752591831
scalar RSUExampleScenario.node[13].veinsmobility 	maxSpeed 	18.99981546358
scalar RSUExampleScenario.node[13].veinsmobility 	totalDistance 	3409.5650022752
scalar RSUExampleScenario.node[13].veinsmobility 	totalCO2Emission 	706.43534699665
scalar RSUExampleScenario.node[14].veinsmobility 	startTime 	84.1
scalar RSUExampleScenario.node[14].veinsmobility 	totalTime 	226.9
scalar RSUExampleScenario.node[14].veinsmobility 	stopTime 	311.1
scalar RSUExampleScenario.node[14].veinsmobility 	minSpeed 	0.25805143686174
scalar RSUExampleScenario.node[14].veinsmobility 	maxSpeed 	18.999367841235
scalar RSUExampleScenario.node[14].veinsmobility 	totalDistance 	3409.3604962786
scalar RSUExampleScenario.node[14].veinsmobility 	totalCO2Emission 	710.97613261032
scalar RSUExampleScenario.node[15].veinsmobility 	startTime 	90.1
scalar RSUExampleScenario.node[15].veinsmobility 	totalTime 	226.9
scalar RSUExampleScenario.node[15].veinsmobility 	stopTime 	317.1
scalar RSUExampleScenario.node[15].veinsmobility 	minSpeed 	0.25163943997398
scalar RSUExampleScenario.node[15].veinsmobility 	maxSpeed 	18.999658372714
scalar RSUExampleScenario.node[15].veinsmobility 	totalDistance 	3409.2697372697
scalar RSUExampleScenario.node[15].veinsmobility 	totalCO2Emission 	705.94396445734
scalar RSUExampleScenario.node[16].veinsmobility 	startTime 	96.1
scalar RSUExampleScenario.node[16].veinsmobility 	totalTime 	226.9
scalar RSUExampleScenario.node[16].veinsmobility 	stopTime 	323.1
scalar RSUExampleScenario.node[16].veinsmobility 	minSpeed 	0.25123749219254
scalar RSUExampleScenario.node[16].veinsmobility 	maxSpeed 	18.999341142755
scalar RSUExampleScenario.node[16].veinsmobility 	totalDistance 	3409.3135282203
scalar RSUExampleScenario.node[16].veinsmobility 	totalCO2Emission 	705.98553223015
scalar RSUExampleScenario.node[17].veinsmobility 	startTime 	102.1
scalar RSUExampleScenario.node[17].veinsmobility 	totalTime 	226.7
scalar RSUExampleScenario.node[17].veinsmobility 	stopTime 	328.9
scalar RSUExampleScenario.node[17].veinsmobility 	minSpeed 	0.25424241970805
scalar RSUExampleScenario.node[17].veinsmobility 	maxSpeed 	18.999961571193
scalar RSUExampleScenario.node[17].veinsmobility 	totalDistance 	3409.3720316111
scalar RSUExampleScenario.node[17].veinsmobility 	totalCO2Emission 	704.96262772319
scalar RSUExampleScenario.node[18].veinsmobility 	startTime 	108.1
scalar RSUExampleScenario.node[18].veinsmobility 	totalTime 	226.8
scalar RSUExampleScenario.node[18].veinsmobility 	stopTime 	335
scalar RSUExampleScenario.node[18].veinsmobility 	minSpeed 	0.25172919930122
scalar RSUExampleScenario.node[18].veinsmobility 	maxSpeed 	18.999809724982
scalar RSUExampleScenario.node[18].veinsmobility 	totalDistance 	3409.5032675166
scalar RSUExampleScenario.node[18].veinsmobility 	totalCO2Emission 	706.14134341518
scalar RSUExampleScenario.node[19].veinsmobility 	startTime 	114.1
scalar RSUExampleScenario.node[19].veinsmobility 	totalTime 	226.9
scalar RSUExampleScenario.node[19].veinsmobility 	stopTime 	341.1
scalar RSUExampleScenario.node[19].veinsmobility 	minSpeed 	0.25764222750952
scalar RSUExampleScenario.node[19].veinsmobility 	maxSpeed 	18.999611672484
scalar RSUExampleScenario.node[19].veinsmobility 	totalDistance 	3409.2723619921
scalar RSUExampleScenario.node[19].veinsmobility 	totalCO2Emission 	708.01766464088
scalar RSUExampleScenario.node[20].veinsmobility 	startTime 	120.1
scalar RSUExampleScenario.node[20].veinsmobility 	totalTime 	226.9
scalar RSUExampleScenario.node[20].veinsmobility 	stopTime 	347.1
scalar RSUExampleScenario.node[20].veinsmobility 	minSpeed 	0.25381113157794
scalar RSUExampleScenario.node[20].veinsmobility 	maxSpeed 	18.999990615472
scalar RSUExampleScenario.node[20].veinsmobility 	totalDistance 	3409.4045587449
scalar RSUExampleScenario.node[20].veinsmobility 	totalCO2Emission 	703.69587389318
scalar RSUExampleScenario.node[21].veinsmobility 	startTime 	126.1
scalar RSUExampleScenario.node[21].veinsmobility 	totalTime 	227.1
scalar RSUExampleScenario.node[21].veinsmobility 	stopTime 	353.3
scalar RSUExampleScenario.node[21].veinsmobility 	minSpeed 	0.25151059631375
scalar RSUExampleScenario.node[21].veinsmobility 	maxSpeed 	18.999920922683
scalar RSUExampleScenario.node[21].veinsmobility 	totalDistance 	3409.5178627639
scalar RSUExampleScenario.node[21].veinsmobility 	totalCO2Emission 	711.62412327203
scalar RSUExampleScenario.node[22].veinsmobility 	startTime 	132.1
scalar RSUExampleScenario.node[22].veinsmobility 	totalTime 	227
scalar RSUExampleScenario.node[22].veinsmobility 	stopTime 	359.2
scalar RSUExampleScenario.node[22].veinsmobility 	minSpeed 	0.25217051114328
scalar RSUExampleScenario.node[22].veinsmobility 	maxSpeed 	18.999557538438
scalar RSUExampleScenario.node[22].veinsmobility 	totalDistance 	3409.1693929538
scalar RSUExampleScenario.node[22].veinsmobility 	totalCO2Emission 	703.62017061412
scalar RSUExampleScenario.node[23].veinsmobility 	startTime 	138.1
scalar RSUExampleScenario.node[23].veinsmobility 	totalTime 	226.8
scalar RSUExampleScenario.node[23].veinsmobility 	stopTime 	365
scalar RSUExampleScenario.node[23].veinsmobility 	minSpeed 	0.25428522262024
scalar RSUExampleScenario.node[23].veinsmobility 	maxSpeed 	18.999969682316
scalar RSUExampleScenario.node[23].veinsmobility 	totalDistance 	3409.3006172816
scalar RSUExampleScenario.node[23].veinsmobility 	totalCO2Emission 	710.19456395634
scalar RSUExampleScenario.node[24].veinsmobility 	startTime 	144.1
scalar RSUExampleScenario.node[24].veinsmobility 	totalTime 	226.9
scalar RSUExampleScenario.node[24].veinsmobility 	stopTime 	371.1
scalar RSUExampleScenario.node[24].veinsmobility 	minSpeed 	0.24904671976669
scalar RSUExampleScenario.node[24].veinsmobility 	maxSpeed 	18.999866555179
scalar RSUExampleScenario.node[24].veinsmobility 	totalDistance 	3409.4740917155
scalar RSUExampleScenario.node[24].veinsmobility 	totalCO2Emission 	707.83205458887
scalar RSUExampleScenario.node[25].veinsmobility 	startTime 	150.1
scalar RSUExampleScenario.node[25].veinsmobility 	totalTime 	226.9
scalar RSUExampleScenario.node[25].veinsmobility 	stopTime 	377.1
scalar RSUExampleScenario.node[25].veinsmobility 	minSpeed 	0.25077567728749
scalar RSUExampleScenario.node[25].veinsmobility 	maxSpeed 	18.999667375109
scalar RSUExampleScenario.node[25].veinsmobility 	totalDistance 	3409.6709286906
scalar RSUExampleScenario.node[25].veinsmobility 	totalCO2Emission 	707.39423618012
scalar RSUExampleScenario.node[26].veinsmobility 	startTime 	156.1
scalar RSUExampleScenario.node[26].veinsmobility 	totalTime 	226.6
scalar RSUExampleScenario.node[26].veinsmobility 	stopTime 	382.8
scalar RSUExampleScenario.node[26].veinsmobility 	minSpeed 	0.25091901583108
scalar RSUExampleScenario.node[26].veinsmobility 	maxSpeed 	18.999638532384
scalar RSUExampleScenario.node[26].veinsmobility 	totalDistance 	3409.6526394183
scalar RSUExampleScenario.node[26].veinsmobility 	totalCO2Emission 	700.68717309135
scalar RSUExampleScenario.node[27].veinsmobility 	startTime 	162.1
scalar RSUExampleScenario.node[27].veinsmobility 	totalTime 	226.8
scalar RSUExampleScenario.node[27].veinsmobility 	stopTime 	389
scalar RSUExampleScenario.node[27].veinsmobility 	minSpeed 	0.24892546053673
scalar RSUExampleScenario.node[27].veinsmobility 	maxSpeed 	18.999938212391
scalar RSUExampleScenario.node[27].veinsmobility 	totalDistance 	3409.3850144144
scalar RSUExampleScenario.node[27].veinsmobility 	totalCO2Emission 	709.21424748234
scalar RSUExampleScenario.node[28].veinsmobility 	startTime 	168.1
scalar RSUExampleScenario.node[28].veinsmobility 	totalTime 	227
scalar RSUExampleScenario.node[28].veinsmobility 	stopTime 	395.2
scalar RSUExampleScenario.node[28].veinsmobility 	minSpeed 	0.25020930220489
scalar RSUExampleScenario.node[28].veinsmobility 	maxSpeed 	18.999985957865
scalar RSUExampleScenario.node[28].veinsmobility 	totalDistance 	3409.3285755976
scalar RSUExampleScenario.node[28].veinsmobility 	totalCO2Emission 	712.06015086431
scalar RSUExampleScenario.node[29].veinsmobility 	startTime 	174.1
scalar RSUExampleScenario.node[29].veinsmobility 	totalTime 	226.8
scalar RSUExampleScenario.node[29].veinsmobility 	stopTime 	401
scalar RSUExampleScenario.node[29].veinsmobility 	minSpeed 	0.25903499561176
scalar RSUExampleScenario.node[29].veinsmobility 	maxSpeed 	18.999938181639
scalar RSUExampleScenario.node[29].veinsmobility 	totalDistance 	3409.1911737259
scalar RSUExampleScenario.node[29].veinsmobility 	totalCO2Emission 	705.21893629177
scalar RSUExampleScenario.node[30].veinsmobility 	startTime 	180.1
scalar RSUExampleScenario.node[30].veinsmobility 	totalTime 	226.9
scalar RSUExampleScenario.node[30].veinsmobility 	stopTime 	407.1
scalar RSUExampleScenario.node[30].veinsmobility 	minSpeed 	0.24794604429021
scalar RSUExampleScenario.node[30].veinsmobility 	maxSpeed 	18.999887284481
scalar RSUExampleScenario.node[30].veinsmobility 	totalDistance 	3409.3445300675
scalar RSUExampleScenario.node[30].veinsmobility 	totalCO2Emission 	704.29881814375
scalar RSUExampleScenario.node[31].veinsmobility 	startTime 	186.1
scalar RSUExampleScenario.node[31].veinsmobility 	totalTime 	227
scalar RSUExampleScenario.node[31].veinsmobility 	stopTime 	413.2
scalar RSUExampleScenario.node[31].veinsmobility 	minSpeed 	0.25914498003596
scalar RSUExampleScenario.node[31].veinsmobility 	maxSpeed 	18.999786881099
scalar RSUExampleScenario.node[31].veinsmobility 	totalDistance 	3409.9288347126
scalar RSUExampleScenario.node[31].veinsmobility 	totalCO2Emission 	704.77323551938
scalar RSUExampleScenario.node[32].veinsmobility 	startTime 	192.1
scalar RSUExampleScenario.node[32].veinsmobility 	totalTime 	226.9
scalar RSUExampleScenario.node[32].veinsmobility 	stopTime 	419.1
scalar RSUExampleScenario.node[32].veinsmobility 	minSpeed 	0.25384137193905
scalar RSUExampleScenario.node[32].veinsmobility 	maxSpeed 	18.999893273031
scalar RSUExampleScenario.node[32].veinsmobility 	totalDistance 	3409.6209106599
scalar RSUExampleScenario.node[32].veinsmobility 	totalCO2Emission 	705.56942249114
scalar RSUExampleScenario.node[33].veinsmobility 	startTime 	198.1
scalar RSUExampleScenario.node[33].veinsmobility 	totalTime 	227.1
scalar RSUExampleScenario.node[33].veinsmobility 	stopTime 	425.3
scalar RSUExampleScenario.node[33].veinsmobility 	minSpeed 	0.25237457347615
scalar RSUExampleScenario.node[33].veinsmobility 	maxSpeed 	18.999969579284
scalar RSUExampleScenario.node[33].veinsmobility 	totalDistance 	3409.1974206001
scalar RSUExampleScenario.node[33].veinsmobility 	totalCO2Emission 	708.49933234411
scalar RSUExampleScenario.node[34].veinsmobility 	startTime 	204.1
scalar RSUExampleScenario.node[34].veinsmobility 	totalTime 	226.8
scalar RSUExampleScenario.node[34].veinsmobility 	stopTime 	431
scalar RSUExampleScenario.node[34].veinsmobility 	minSpeed 	0.25018478433602
scalar RSUExampleScenario.node[34].veinsmobility 	maxSpeed 	18.999633991339
scalar RSUExampleScenario.node[34].veinsmobility 	totalDistance 	3409.1808687986
scalar RSUExampleScenario.node[34].veinsmobility 	totalCO2Emission 	704.03971186791
scalar RSUExampleScenario.node[35].veinsmobility 	startTime 	210.1
scalar RSUExampleScenario.node[35].veinsmobility 	totalTime 	226.8
scalar RSUExampleScenario.node[35].veinsmobility 	stopTime 	437
scalar RSUExampleScenario.node[35].veinsmobility 	minSpeed 	0.25570554514811
scalar RSUExampleScenario.node[35].veinsmobility 	maxSpeed 	18.999892302398
scalar RSUExampleScenario.node[35].veinsmobility 	totalDistance 	3409.5193414062
scalar RSUExampleScenario.node[35].veinsmobility 	totalCO2Emission 	708.7470288063
scalar RSUExampleScenario.node[36].veinsmobility 	startTime 	216.1
scalar RSUExampleScenario.node[36].veinsmobility 	totalTime 	226.8
scalar RSUExampleScenario.node[36].veinsmobility 	stopTime 	443
scalar RSUExampleScenario.node[36].veinsmobility 	minSpeed 	0.25754431670252
scalar RSUExampleScenario.node[36].veinsmobility 	maxSpeed 	18.999563484341
scalar RSUExampleScenario.node[36].veinsmobility 	totalDistance 	3409.8209555859
scalar RSUExampleScenario.node[36].veinsmobility 	totalCO2Emission 	706.7043421041
scalar RSUExampleScenario.node[37].veinsmobility 	startTime 	222.1
scalar RSUExampleScenario.node[37].veinsmobility 	totalTime 	226.8
scalar RSUExampleScenario.node[37].veinsmobility 	stopTime 	449
scalar RSUExampleScenario.node[37].veinsmobility 	minSpeed 	0.25886001271452
scalar RSUExampleScenario.node[37].veinsmobility 	maxSpeed 	18.999957847444
scalar RSUExampleScenario.node[37].veinsmobility 	totalDistance 	3409.2523769119
scalar RSUExampleScenario.node[37].veinsmobility 	totalCO2Emission 	704.33297682669
scalar RSUExampleScenario.node[38].veinsmobility 	startTime 	228.1
scalar RSUExampleScenario.node[38].veinsmobility 	totalTime 	226.9
scalar RSUExampleScenario.node[38].veinsmobility 	stopTime 	455.1
scalar RSUExampleScenario.node[38].veinsmobility 	minSpeed 	0.25033871031762
scalar RSUExampleScenario.node[38].veinsmobility 	maxSpeed 	18.999781972752
scalar RSUExampleScenario.node[38].veinsmobility 	totalDistance 	3409.6341119919
scalar RSUExampleScenario.node[38].veinsmobility 	totalCO2Emission 	706.76688203722
scalar RSUExampleScenario.node[39].veinsmobility 	startTime 	234.1
scalar RSUExampleScenario.node[39].veinsmobility 	totalTime 	226.9
scalar RSUExampleScenario.node[39].veinsmobility 	stopTime 	461.1
scalar RSUExampleScenario.node[39].veinsmobility 	minSpeed 	0.25202365093189
scalar RSUExampleScenario.node[39].veinsmobility 	maxSpeed 	18.999910910306
scalar RSUExampleScenario.node[39].veinsmobility 	totalDistance 	3409.3931184067
scalar RSUExampleScenario.node[39].veinsmobility 	totalCO2Emission 	703.86212896376
scalar RSUExampleScenario.node[40].veinsmobility 	startTime 	240.1
scalar RSUExampleScenario.node[40].veinsmobility 	totalTime 	226.8
scalar RSUExampleScenario.node[40].veinsmobility 	stopTime 	467
scalar RSUExampleScenario.node[40].veinsmobility 	minSpeed 	0.25509165855683
scalar RSUExampleScenario.node[40].veinsmobility 	maxSpeed 	18.999944409064
scalar RSUExampleScenario.node[40].veinsmobility 	totalDistance 	3409.8026718858
scalar RSUExampleScenario.node[40].veinsmobility 	totalCO2Emission 	703.84734829453
scalar RSUExampleScenario.node[41].veinsmobility 	startTime 	246.1
scalar RSUExampleScenario.node[41].veinsmobility 	totalTime 	226.9
scalar RSUExampleScenario.node[41].veinsmobility 	stopTime 	473.1
scalar RSUExampleScenario.node[41].veinsmobility 	minSpeed 	0.2483486126198
scalar RSUExampleScenario.node[41].veinsmobility 	maxSpeed 	18.999947091807
scalar RSUExampleScenario.node[41].veinsmobility 	totalDistance 	3409.8395477952
scalar RSUExampleScenario.node[41].veinsmobility 	totalCO2Emission 	704.7590793119
scalar RSUExampleScenario.node[42].veinsmobility 	startTime 	252.1
scalar RSUExampleScenario.node[42].veinsmobility 	totalTime 	226.7
scalar RSUExampleScenario.node[42].veinsmobility 	stopTime 	478.9
scalar RSUExampleScenario.node[42].veinsmobility 	minSpeed 	0.25721797034144
scalar RSUExampleScenario.node[42].veinsmobility 	maxSpeed 	18.99997504771
scalar RSUExampleScenario.node[42].veinsmobility 	totalDistance 	3409.4996449899
scalar RSUExampleScenario.node[42].veinsmobility 	totalCO2Emission 	703.16165038999
scalar RSUExampleScenario.node[43].veinsmobility 	startTime 	258.1
scalar RSUExampleScenario.node[43].veinsmobility 	totalTime 	227.1
scalar RSUExampleScenario.node[43].veinsmobility 	stopTime 	485.3
scalar RSUExampleScenario.node[43].veinsmobility 	minSpeed 	0.25827615405759
scalar RSUExampleScenario.node[43].veinsmobility 	maxSpeed 	18.999627449519
scalar RSUExampleScenario.node[43].veinsmobility 	totalDistance 	3409.6930054129
scalar RSUExampleScenario.node[43].veinsmobility 	totalCO2Emission 	711.10084764501
scalar RSUExampleScenario.node[44].veinsmobility 	startTime 	264.1
scalar RSUExampleScenario.node[44].veinsmobility 	totalTime 	226.8
scalar RSUExampleScenario.node[44].veinsmobility 	stopTime 	491
scalar RSUExampleScenario.node[44].veinsmobility 	minSpeed 	0.25496363596711
scalar RSUExampleScenario.node[44].veinsmobility 	maxSpeed 	18.999880014474
scalar RSUExampleScenario.node[44].veinsmobility 	totalDistance 	3409.17002527
scalar RSUExampleScenario.node[44].veinsmobility 	totalCO2Emission 	711.20956430998
scalar RSUExampleScenario.node[45].veinsmobility 	startTime 	270.1
scalar RSUExampleScenario.node[45].veinsmobility 	totalTime 	227
scalar RSUExampleScenario.node[45].veinsmobility 	stopTime 	497.2
scalar RSUExampleScenario.node[45].veinsmobility 	minSpeed 	0.25324582540011
scalar RSUExampleScenario.node[45].veinsmobility 	maxSpeed 	18.999522640209
scalar RSUExampleScenario.node[45].veinsmobility 	totalDistance 	3409.2414619867
scalar RSUExampleScenario.node[45].veinsmobility 	totalCO2Emission 	705.40695853889
scalar RSUExampleScenario.node[46].veinsmobility 	startTime 	276.1
scalar RSUExampleScenario.node[46].veinsmobility 	totalTime 	226.9
scalar RSUExampleScenario.node[46].veinsmobility 	stopTime 	503.1
scalar RSUExampleScenario.node[46].veinsmobility 	minSpeed 	0.24896355963778
scalar RSUExampleScenario.node[46].veinsmobility 	maxSpeed 	18.999991851859
scalar RSUExampleScenario.node[46].veinsmobility 	totalDistance 	3409.2491462851
scalar RSUExampleScenario.node[46].veinsmobility 	totalCO2Emission 	705.05672887694
scalar RSUExampleScenario.node[47].veinsmobility 	startTime 	282.1
scalar RSUExampleScenario.node[47].veinsmobility 	totalTime 	227
scalar RSUExampleScenario.node[47].veinsmobility 	stopTime 	509.2
scalar RSUExampleScenario.node[47].veinsmobility 	minSpeed 	0.25897210656293
scalar RSUExampleScenario.node[47].veinsmobility 	maxSpeed 	18.999834896957
scalar RSUExampleScenario.node[47].veinsmobility 	totalDistance 	3409.5882679629
scalar RSUExampleScenario.node[47].veinsmobility 	totalCO2Emission 	707.92213826573
scalar RSUExampleScenario.node[48].veinsmobility 	startTime 	288.1
scalar RSUExampleScenario.node[48].veinsmobility 	totalTime 	227.1
scalar RSUExampleScenario.node[48].veinsmobility 	stopTime 	515.3
scalar RSUExampleScenario.node[48].veinsmobility 	minSpeed 	0.25350875958474
scalar RSUExampleScenario.node[48].veinsmobility 	maxSpeed 	18.999070036814
scalar RSUExampleScenario.node[48].veinsmobility 	totalDistance 	3409.2588836608
scalar RSUExampleScenario.node[48].veinsmobility 	totalCO2Emission 	709.47929332293
scalar RSUExampleScenario.node[49].veinsmobility 	startTime 	294.1
scalar RSUExampleScenario.node[49].veinsmobility 	totalTime 	226.9
scalar RSUExampleScenario.node[49].veinsmobility 	stopTime 	521.1
scalar RSUExampleScenario.node[49].veinsmobility 	minSpeed 	0.2554254444039
scalar RSUExampleScenario.node[49].veinsmobility 	maxSpeed 	18.999435460456
scalar RSUExampleScenario.node[49].veinsmobility 	totalDistance 	3409.3062402929
scalar RSUExampleScenario.node[49].veinsmobility 	totalCO2Emission 	706.46370590239
scalar RSUExampleScenario.node[50].veinsmobility 	startTime 	300.1
scalar RSUExampleScenario.node[50].veinsmobility 	totalTime 	226.8
scalar RSUExampleScenario.node[50].veinsmobility 	stopTime 	527
scalar RSUExampleScenario.node[50].veinsmobility 	minSpeed 	0.25611280538747
scalar RSUExampleScenario.node[50].veinsmobility 	maxSpeed 	18.999906189984
scalar RSUExampleScenario.node[50].veinsmobility 	totalDistance 	3409.3493602431
scalar RSUExampleScenario.node[50].veinsmobility 	totalCO2Emission 	710.73597450014
scalar RSUExampleScenario.node[51].veinsmobility 	startTime 	306.1
scalar RSUExampleScenario.node[51].veinsmobility 	totalTime 	226.9
scalar RSUExampleScenario.node[51].veinsmobility 	stopTime 	533.1
scalar RSUExampleScenario.node[51].veinsmobility 	minSpeed 	0.24910680713831
scalar RSUExampleScenario.node[51].veinsmobility 	maxSpeed 	18.999725578323
scalar RSUExampleScenario.node[51].veinsmobility 	totalDistance 	3409.1551987589
scalar RSUExampleScenario.node[51].veinsmobility 	totalCO2Emission 	708.65690207139
scalar RSUExampleScenario.node[52].veinsmobility 	startTime 	312.1
scalar RSUExampleScenario.node[52].veinsmobility 	totalTime 	227
scalar RSUExampleScenario.node[52].veinsmobility 	stopTime 	539.2
scalar RSUExampleScenario.node[52].veinsmobility 	minSpeed 	0.25897169315373
scalar RSUExampleScenario.node[52].veinsmobility 	maxSpeed 	18.999523022494
scalar RSUExampleScenario.node[52].veinsmobility 	totalDistance 	3409.3970143443
scalar RSUExampleScenario.node[52].veinsmobility 	totalCO2Emission 	707.16955739691
scalar RSUExampleScenario.node[53].veinsmobility 	startTime 	318.1
scalar RSUExampleScenario.node[53].veinsmobility 	totalTime 	227.2
scalar RSUExampleScenario.node[53].veinsmobility 	stopTime 	545.4
scalar RSUExampleScenario.node[53].veinsmobility 	minSpeed 	0.24779642791557
scalar RSUExampleScenario.node[53].veinsmobility 	maxSpeed 	18.999826538695
scalar RSUExampleScenario.node[53].veinsmobility 	totalDistance 	3409.4740523688
scalar RSUExampleScenario.node[53].veinsmobility 	totalCO2Emission 	707.46715844221
scalar RSUExampleScenario.node[54].veinsmobility 	startTime 	324.1
scalar RSUExampleScenario.node[54].veinsmobility 	totalTime 	226.7
scalar RSUExampleScenario.node[54].veinsmobility 	stopTime 	550.9
scalar RSUExampleScenario.node[54].veinsmobility 	minSpeed 	0.25130069919443
scalar RSUExampleScenario.node[54].veinsmobility 	maxSpeed 	18.999894663361
scalar RSUExampleScenario.node[54].veinsmobility 	totalDistance 	3409.5727947775
scalar RSUExampleScenario.node[54].veinsmobility 	totalCO2Emission 	706.92195635094
scalar RSUExampleScenario.node[55].veinsmobility 	startTime 	330.1
scalar RSUExampleScenario.node[55].veinsmobility 	totalTime 	227
scalar RSUExampleScenario.node[55].veinsmobility 	stopTime 	557.2
scalar RSUExampleScenario.node[55].veinsmobility 	minSpeed 	0.24735127207893
scalar RSUExampleScenario.node[55].veinsmobility 	maxSpeed 	18.999873710864
scalar RSUExampleScenario.node[55].veinsmobility 	totalDistance 	3409.8147075314
scalar RSUExampleScenario.node[55].veinsmobility 	totalCO2Emission 	703.90490379493
scalar RSUExampleScenario.node[56].veinsmobility 	startTime 	336.1
scalar RSUExampleScenario.node[56].veinsmobility 	totalTime 	227
scalar RSUExampleScenario.node[56].veinsmobility 	stopTime 	563.2
scalar RSUExampleScenario.node[56].veinsmobility 	minSpeed 	0.24844742253725
scalar RSUExampleScenario.node[56].veinsmobility 	maxSpeed 	18.9998269718
scalar RSUExampleScenario.node[56].veinsmobility 	totalDistance 	3409.1360207583
scalar RSUExampleScenario.node[56].veinsmobility 	totalCO2Emission 	706.99387503442
scalar RSUExampleScenario.node[57].veinsmobility 	startTime 	342.1
scalar RSUExampleScenario.node[57].veinsmobility 	totalTime 	227.2
scalar RSUExampleScenario.node[57].veinsmobility 	stopTime 	569.4
scalar RSUExampleScenario.node[57].veinsmobility 	minSpeed 	0.25607485245354
scalar RSUExampleScenario.node[57].veinsmobility 	maxSpeed 	18.999588102563
scalar RSUExampleScenario.node[57].veinsmobility 	totalDistance 	3409.4023534451
scalar RSUExampleScenario.node[57].veinsmobility 	totalCO2Emission 	708.63072627208
scalar RSUExampleScenario.node[58].veinsmobility 	startTime 	348.1
scalar RSUExampleScenario.node[58].veinsmobility 	totalTime 	227.1
scalar RSUExampleScenario.node[58].veinsmobility 	stopTime 	575.3
scalar RSUExampleScenario.node[58].veinsmobility 	minSpeed 	0.2537239638106
scalar RSUExampleScenario.node[58].veinsmobility 	maxSpeed 	18.999890289123
scalar RSUExampleScenario.node[58].veinsmobility 	totalDistance 	3409.1528479343
scalar RSUExampleScenario.node[58].veinsmobility 	totalCO2Emission 	710.87855771463
scalar RSUExampleScenario.node[59].veinsmobility 	startTime 	354.1
scalar RSUExampleScenario.node[59].veinsmobility 	totalTime 	226.9
scalar RSUExampleScenario.node[59].veinsmobility 	stopTime 	581.1
scalar RSUExampleScenario.node[59].veinsmobility 	minSpeed 	0.25432933129626
scalar RSUExampleScenario.node[59].veinsmobility 	maxSpeed 	18.999930644154
scalar RSUExampleScenario.node[59].veinsmobility 	totalDistance 	3409.3874142571
scalar RSUExampleScenario.node[59].veinsmobility 	totalCO2Emission 	709.46493957684
scalar RSUExampleScenario.node[60].veinsmobility 	startTime 	360.1
scalar RSUExampleScenario.node[60].veinsmobility 	totalTime 	226.7
scalar RSUExampleScenario.node[60].veinsmobility 	stopTime 	586.9
scalar RSUExampleScenario.node[60].veinsmobility 	minSpeed 	0.25044938987936
scalar RSUExampleScenario.node[60].veinsmobility 	maxSpeed 	18.999876843903
scalar RSUExampleScenario.node[60].veinsmobility 	totalDistance 	3409.4815760334
scalar RSUExampleScenario.node[60].veinsmobility 	totalCO2Emission 	703.08179206783
scalar RSUExampleScenario.node[61].veinsmobility 	startTime 	366.1
scalar RSUExampleScenario.node[61].veinsmobility 	totalTime 	227
scalar RSUExampleScenario.node[61].veinsmobility 	stopTime 	593.2
scalar RSUExampleScenario.node[61].veinsmobility 	minSpeed 	0.25778670246154
scalar RSUExampleScenario.node[61].veinsmobility 	maxSpeed 	18.999718276777
scalar RSUExampleScenario.node[61].veinsmobility 	totalDistance 	3409.3953248364
scalar RSUExampleScenario.node[61].veinsmobility 	totalCO2Emission 	708.11138417096
scalar RSUExampleScenario.node[62].veinsmobility 	startTime 	372.1
scalar RSUExampleScenario.node[62].veinsmobility 	totalTime 	226.9
scalar RSUExampleScenario.node[62].veinsmobility 	stopTime 	599.1
scalar RSUExampleScenario.node[62].veinsmobility 	minSpeed 	0.25808176681912
scalar RSUExampleScenario.node[62].veinsmobility 	maxSpeed 	18.99984599205
scalar RSUExampleScenario.node[62].veinsmobility 	totalDistance 	3409.6003422561
scalar RSUExampleScenario.node[62].veinsmobility 	totalCO2Emission 	709.29654008407
scalar RSUExampleScenario.node[63].veinsmobility 	startTime 	378.1
scalar RSUExampleScenario.node[63].veinsmobility 	totalTime 	227.1
scalar RSUExampleScenario.node[63].veinsmobility 	stopTime 	605.3
scalar RSUExampleScenario.node[63].veinsmobility 	minSpeed 	0.25124427624652
scalar RSUExampleScenario.node[63].veinsmobility 	maxSpeed 	18.999995531659
scalar RSUExampleScenario.node[63].veinsmobility 	totalDistance 	3409.3383912484
scalar RSUExampleScenario.node[63].veinsmobility 	totalCO2Emission 	710.25196131594
scalar RSUExampleScenario.node[64].veinsmobility 	startTime 	384.1
scalar RSUExampleScenario.node[64].veinsmobility 	totalTime 	226.9
scalar RSUExampleScenario.node[64].veinsmobility 	stopTime 	611.1
scalar RSUExampleScenario.node[64].veinsmobility 	minSpeed 	0.25351137282257
scalar RSUExampleScenario.node[64].veinsmobility 	maxSpeed 	18.99953785765
scalar RSUExampleScenario.node[64].veinsmobility 	totalDistance 	3409.6157859688
scalar RSUExampleScenario.node[64].veinsmobility 	totalCO2Emission 	705.96584468141
scalar RSUExampleScenario.node[65].veinsmobility 	startTime 	390.1
scalar RSUExampleScenario.node[65].veinsmobility 	totalTime 	226.8
scalar RSUExampleScenario.node[65].veinsmobility 	stopTime 	617
scalar RSUExampleScenario.node[65].veinsmobility 	minSpeed 	0.24838772829529
scalar RSUExampleScenario.node[65].veinsmobility 	maxSpeed 	18.999988931271
scalar RSUExampleScenario.node[65].veinsmobility 	totalDistance 	3409.1580701876
scalar RSUExampleScenario.node[65].veinsmobility 	totalCO2Emission 	706.0374334248
scalar RSUExampleScenario.node[66].veinsmobility 	startTime 	396.1
scalar RSUExampleScenario.node[66].veinsmobility 	totalTime 	226.9
scalar RSUExampleScenario.node[66].veinsmobility 	stopTime 	623.1
scalar RSUExampleScenario.node[66].veinsmobility 	minSpeed 	0.25810496988613
scalar RSUExampleScenario.node[66].veinsmobility 	maxSpeed 	18.999438889001
scalar RSUExampleScenario.node[66].veinsmobility 	totalDistance 	3409.5526095551
scalar RSUExampleScenario.node[66].veinsmobility 	totalCO2Emission 	707.56944090701
scalar RSUExampleScenario.node[67].veinsmobility 	startTime 	402.1
scalar RSUExampleScenario.node[67].veinsmobility 	totalTime 	227
scalar RSUExampleScenario.node[67].veinsmobility 	stopTime 	629.2
scalar RSUExampleScenario.node[67].veinsmobility 	minSpeed 	0.252145297701
scalar RSUExampleScenario.node[67].veinsmobility 	maxSpeed 	18.999966599068
scalar RSUExampleScenario.node[67].veinsmobility 	totalDistance 	3409.7669802889
scalar RSUExampleScenario.node[67].veinsmobility 	totalCO2Emission 	704.19637507754
scalar RSUExampleScenario.node[68].veinsmobility 	startTime 	408.1
scalar RSUExampleScenario.node[68].veinsmobility 	totalTime 	226.8
scalar RSUExampleScenario.node[68].veinsmobility 	stopTime 	635
scalar RSUExampleScenario.node[68].veinsmobility 	minSpeed 	0.25067483528657
scalar RSUExampleScenario.node[68].veinsmobility 	maxSpeed 	18.999837874388
scalar RSUExampleScenario.node[68].veinsmobility 	totalDistance 	3409.2963095033
scalar RSUExampleScenario.node[68].veinsmobility 	totalCO2Emission 	703.01769956738
scalar RSUExampleScenario.node[69].veinsmobility 	startTime 	414.1
scalar RSUExampleScenario.node[69].veinsmobility 	totalTime 	227.1
scalar RSUExampleScenario.node[69].veinsmobility 	stopTime 	641.3
scalar RSUExampleScenario.node[69].veinsmobility 	minSpeed 	0.2500044362843
scalar RSUExampleScenario.node[69].veinsmobility 	maxSpeed 	18.999703309471
scalar RSUExampleScenario.node[69].veinsmobility 	totalDistance 	3409.6430159134
scalar RSUExampleScenario.node[69].veinsmobility 	totalCO2Emission 	708.0047905781
scalar RSUExampleScenario.node[70].veinsmobility 	startTime 	420.1
scalar RSUExampleScenario.node[70].veinsmobility 	totalTime 	226.9
scalar RSUExampleScenario.node[70].veinsmobility 	stopTime 	647.1
scalar RSUExampleScenario.node[70].veinsmobility 	minSpeed 	0.25992936535599
scalar RSUExampleScenario.node[70].veinsmobility 	maxSpeed 	18.999593241008
scalar RSUExampleScenario.node[70].veinsmobility 	totalDistance 	3409.9670146923
scalar RSUExampleScenario.node[70].veinsmobility 	totalCO2Emission 	705.19007102695
scalar RSUExampleScenario.node[71].veinsmobility 	startTime 	426.1
scalar RSUExampleScenario.node[71].veinsmobility 	totalTime 	226.8
scalar RSUExampleScenario.node[71].veinsmobility 	stopTime 	653
scalar RSUExampleScenario.node[71].veinsmobility 	minSpeed 	0.25634093245934
scalar RSUExampleScenario.node[71].veinsmobility 	maxSpeed 	18.999809999089
scalar RSUExampleScenario.node[71].veinsmobility 	totalDistance 	3409.8595744845
scalar RSUExampleScenario.node[71].veinsmobility 	totalCO2Emission 	708.81111403329
scalar RSUExampleScenario.node[72].veinsmobility 	startTime 	432.1
scalar RSUExampleScenario.node[72].veinsmobility 	totalTime 	226.9
scalar RSUExampleScenario.node[72].veinsmobility 	stopTime 	659.1
scalar RSUExampleScenario.node[72].veinsmobility 	minSpeed 	0.25000586693385
scalar RSUExampleScenario.node[72].veinsmobility 	maxSpeed 	18.999996406767
scalar RSUExampleScenario.node[72].veinsmobility 	totalDistance 	3409.3326289894
scalar RSUExampleScenario.node[72].veinsmobility 	totalCO2Emission 	709.79938254834
scalar RSUExampleScenario.node[73].veinsmobility 	startTime 	438.1
scalar RSUExampleScenario.node[73].veinsmobility 	totalTime 	226.6
scalar RSUExampleScenario.node[73].veinsmobility 	stopTime 	664.8
scalar RSUExampleScenario.node[73].veinsmobility 	minSpeed 	0.25912930708332
scalar RSUExampleScenario.node[73].veinsmobility 	maxSpeed 	18.999861861826
scalar RSUExampleScenario.node[73].veinsmobility 	totalDistance 	3409.4151706817
scalar RSUExampleScenario.node[73].veinsmobility 	totalCO2Emission 	708.25969410214
scalar RSUExampleScenario.node[74].veinsmobility 	startTime 	444.1
scalar RSUExampleScenario.node[74].veinsmobility 	totalTime 	226.7
scalar RSUExampleScenario.node[74].veinsmobility 	stopTime 	670.9
scalar RSUExampleScenario.node[74].veinsmobility 	minSpeed 	0.25598417605786
scalar RSUExampleScenario.node[74].veinsmobility 	maxSpeed 	18.999897630743
scalar RSUExampleScenario.node[74].veinsmobility 	totalDistance 	3409.4811893138
scalar RSUExampleScenario.node[74].veinsmobility 	totalCO2Emission 	706.41632882755
scalar RSUExampleScenario.node[75].veinsmobility 	startTime 	450.1
scalar RSUExampleScenario.node[75].veinsmobility 	totalTime 	226.6
scalar RSUExampleScenario.node[75].veinsmobility 	stopTime 	676.8
scalar RSUExampleScenario.node[75].veinsmobility 	minSpeed 	0.25260970991687
scalar RSUExampleScenario.node[75].veinsmobility 	maxSpeed 	18.999398941346
scalar RSUExampleScenario.node[75].veinsmobility 	totalDistance 	3409.3225077425
scalar RSUExampleScenario.node[75].veinsmobility 	totalCO2Emission 	705.80585236456
scalar RSUExampleScenario.node[76].veinsmobility 	startTime 	456.1
scalar RSUExampleScenario.node[76].veinsmobility 	totalTime 	226.9
scalar RSUExampleScenario.node[76].veinsmobility 	stopTime 	683.1
scalar RSUExampleScenario.node[76].veinsmobility 	minSpeed 	0.2553389879372
scalar RSUExampleScenario.node[76].veinsmobility 	maxSpeed 	18.999820298678
scalar RSUExampleScenario.node[76].veinsmobility 	totalDistance 	3409.7594214622
scalar RSUExampleScenario.node[76].veinsmobility 	totalCO2Emission 	712.04197191784
scalar RSUExampleScenario.node[77].veinsmobility 	startTime 	462.1
scalar RSUExampleScenario.node[77].veinsmobility 	totalTime 	227
scalar RSUExampleScenario.node[77].veinsmobility 	stopTime 	689.2
scalar RSUExampleScenario.node[77].veinsmobility 	minSpeed 	0.25520547616691
scalar RSUExampleScenario.node[77].veinsmobility 	maxSpeed 	18.998449813472
scalar RSUExampleScenario.node[77].veinsmobility 	totalDistance 	3409.3102482858
scalar RSUExampleScenario.node[77].veinsmobility 	totalCO2Emission 	702.94906128244
scalar RSUExampleScenario.node[78].veinsmobility 	startTime 	468.1
scalar RSUExampleScenario.node[78].veinsmobility 	totalTime 	226.9
scalar RSUExampleScenario.node[78].veinsmobility 	stopTime 	695.1
scalar RSUExampleScenario.node[78].veinsmobility 	minSpeed 	0.25649989016028
scalar RSUExampleScenario.node[78].veinsmobility 	maxSpeed 	18.999950161041
scalar RSUExampleScenario.node[78].veinsmobility 	totalDistance 	3409.3446948169
scalar RSUExampleScenario.node[78].veinsmobility 	totalCO2Emission 	708.23614671407
scalar RSUExampleScenario.node[79].veinsmobility 	startTime 	474.1
scalar RSUExampleScenario.node[79].veinsmobility 	totalTime 	227
scalar RSUExampleScenario.node[79].veinsmobility 	stopTime 	701.2
scalar RSUExampleScenario.node[79].veinsmobility 	minSpeed 	0.24862884084065
scalar RSUExampleScenario.node[79].veinsmobility 	maxSpeed 	18.999978858964
scalar RSUExampleScenario.node[79].veinsmobility 	totalDistance 	3409.6731773472
scalar RSUExampleScenario.node[79].veinsmobility 	totalCO2Emission 	707.56874527852
scalar RSUExampleScenario.node[80].veinsmobility 	startTime 	480.1
scalar RSUExampleScenario.node[80].veinsmobility 	totalTime 	226.8
scalar RSUExampleScenario.node[80].veinsmobility 	stopTime 	707
scalar RSUExampleScenario.node[80].veinsmobility 	minSpeed 	0.24781697269087
scalar RSUExampleScenario.node[80].veinsmobility 	maxSpeed 	18.999945866256
scalar RSUExampleScenario.node[80].veinsmobility 	totalDistance 	3409.4493393845
scalar RSUExampleScenario.node[80].veinsmobility 	totalCO2Emission 	707.07161113667
scalar RSUExampleScenario.node[81].veinsmobility 	startTime 	486.1
scalar RSUExampleScenario.node[81].veinsmobility 	totalTime 	226.9
scalar RSUExampleScenario.node[81].veinsmobility 	stopTime 	713.1
scalar RSUExampleScenario.node[81].veinsmobility 	minSpeed 	0.25459575564275
scalar RSUExampleScenario.node[81].veinsmobility 	maxSpeed 	18.999992500138
scalar RSUExampleScenario.node[81].veinsmobility 	totalDistance 	3409.2225030227
scalar RSUExampleScenario.node[81].veinsmobility 	totalCO2Emission 	707.22621498172
scalar RSUExampleScenario.node[82].veinsmobility 	startTime 	492.1
scalar RSUExampleScenario.node[82].veinsmobility 	totalTime 	226.8
scalar RSUExampleScenario.node[82].veinsmobility 	stopTime 	719
scalar RSUExampleScenario.node[82].veinsmobility 	minSpeed 	0.25075838346616
scalar RSUExampleScenario.node[82].veinsmobility 	maxSpeed 	18.999796988971
scalar RSUExampleScenario.node[82].veinsmobility 	totalDistance 	3409.8374769411
scalar RSUExampleScenario.node[82].veinsmobility 	totalCO2Emission 	705.98868240709
scalar RSUExampleScenario.node[83].veinsmobility 	startTime 	498.1
scalar RSUExampleScenario.node[83].veinsmobility 	totalTime 	227
scalar RSUExampleScenario.node[83].veinsmobility 	stopTime 	725.2
scalar RSUExampleScenario.node[83].veinsmobility 	minSpeed 	0.2474919247143
scalar RSUExampleScenario.node[83].veinsmobility 	maxSpeed 	18.999811148546
scalar RSUExampleScenario.node[83].veinsmobility 	totalDistance 	3409.6068458352
scalar RSUExampleScenario.node[83].veinsmobility 	totalCO2Emission 	712.90758895895
scalar RSUExampleScenario.node[84].veinsmobility 	startTime 	504.1
scalar RSUExampleScenario.node[84].veinsmobility 	totalTime 	226.7
scalar RSUExampleScenario.node[84].veinsmobility 	stopTime 	730.9
scalar RSUExampleScenario.node[84].veinsmobility 	minSpeed 	0.257417397629
scalar RSUExampleScenario.node[84].veinsmobility 	maxSpeed 	18.999895563228
scalar RSUExampleScenario.node[84].veinsmobility 	totalDistance 	3409.3090424085
scalar RSUExampleScenario.node[84].veinsmobility 	totalCO2Emission 	707.36539017586
scalar RSUExampleScenario.node[85].veinsmobility 	startTime 	510.1
scalar RSUExampleScenario.node[85].veinsmobility 	totalTime 	226.9
scalar RSUExampleScenario.node[85].veinsmobility 	stopTime 	737.1
scalar RSUExampleScenario.node[85].veinsmobility 	minSpeed 	0.25424867549492
scalar RSUExampleScenario.node[85].veinsmobility 	maxSpeed 	18.999084493197
scalar RSUExampleScenario.node[85].veinsmobility 	totalDistance 	3409.4949859246
scalar RSUExampleScenario.node[85].veinsmobility 	totalCO2Emission 	707.3879186491
scalar RSUExampleScenario.node[86].veinsmobility 	startTime 	516.1
scalar RSUExampleScenario.node[86].veinsmobility 	totalTime 	226.8
scalar RSUExampleScenario.node[86].veinsmobility 	stopTime 	743
scalar RSUExampleScenario.node[86].veinsmobility 	minSpeed 	0.2529104096524
scalar RSUExampleScenario.node[86].veinsmobility 	maxSpeed 	18.99999746663
scalar RSUExampleScenario.node[86].veinsmobility 	totalDistance 	3409.3559644918
scalar RSUExampleScenario.node[86].veinsmobility 	totalCO2Emission 	706.97596417762
scalar RSUExampleScenario.node[87].veinsmobility 	startTime 	522.1
scalar RSUExampleScenario.node[87].veinsmobility 	totalTime 	227.2
scalar RSUExampleScenario.node[87].veinsmobility 	stopTime 	749.4
scalar RSUExampleScenario.node[87].veinsmobility 	minSpeed 	0.25112111796089
scalar RSUExampleScenario.node[87].veinsmobility 	maxSpeed 	18.999981481684
scalar RSUExampleScenario.node[87].veinsmobility 	totalDistance 	3409.3237619418
scalar RSUExampleScenario.node[87].veinsmobility 	totalCO2Emission 	705.70148097237
scalar RSUExampleScenario.node[88].veinsmobility 	startTime 	528.1
scalar RSUExampleScenario.node[88].veinsmobility 	totalTime 	226.9
scalar RSUExampleScenario.node[88].veinsmobility 	stopTime 	755.1
scalar RSUExampleScenario.node[88].veinsmobility 	minSpeed 	0.25852293906827
scalar RSUExampleScenario.node[88].veinsmobility 	maxSpeed 	18.999771176435
scalar RSUExampleScenario.node[88].veinsmobility 	totalDistance 	3409.500761041
scalar RSUExampleScenario.node[88].veinsmobility 	totalCO2Emission 	705.04239060009
scalar RSUExampleScenario.node[89].veinsmobility 	startTime 	534.1
scalar RSUExampleScenario.node[89].veinsmobility 	totalTime 	227.1
scalar RSUExampleScenario.node[89].veinsmobility 	stopTime 	761.3
scalar RSUExampleScenario.node[89].veinsmobility 	minSpeed 	0.24767650447832
scalar RSUExampleScenario.node[89].veinsmobility 	maxSpeed 	18.999748214537
scalar RSUExampleScenario.node[89].veinsmobility 	totalDistance 	3409.457220637
scalar RSUExampleScenario.node[89].veinsmobility 	totalCO2Emission 	708.60127884653
scalar RSUExampleScenario.node[90].veinsmobility 	startTime 	540.1
scalar RSUExampleScenario.node[90].veinsmobility 	totalTime 	226.8
scalar RSUExampleScenario.node[90].veinsmobility 	stopTime 	767
scalar RSUExampleScenario.node[90].veinsmobility 	minSpeed 	0.25007485868922
scalar RSUExampleScenario.node[90].veinsmobility 	maxSpeed 	18.999582511189
scalar RSUExampleScenario.node[90].veinsmobility 	totalDistance 	3409.5177592004
scalar RSUExampleScenario.node[90].veinsmobility 	totalCO2Emission 	704.38964387148
scalar RSUExampleScenario.node[91].veinsmobility 	startTime 	546.1
scalar RSUExampleScenario.node[91].veinsmobility 	totalTime 	227.1
scalar RSUExampleScenario.node[91].veinsmobility 	stopTime 	773.3
scalar RSUExampleScenario.node[91].veinsmobility 	minSpeed 	0.25153992688889
scalar RSUExampleScenario.node[91].veinsmobility 	maxSpeed 	18.999692615792
scalar RSUExampleScenario.node[91].veinsmobility 	totalDistance 	3409.5328026233
scalar RSUExampleScenario.node[91].veinsmobility 	totalCO2Emission 	705.5610632531
scalar RSUExampleScenario.node[92].veinsmobility 	startTime 	552.1
scalar RSUExampleScenario.node[92].veinsmobility 	totalTime 	227
scalar RSUExampleScenario.node[92].veinsmobility 	stopTime 	779.2
scalar RSUExampleScenario.node[92].veinsmobility 	minSpeed 	0.25546957695228
scalar RSUExampleScenario.node[92].veinsmobility 	maxSpeed 	18.999735587128
scalar RSUExampleScenario.node[92].veinsmobility 	totalDistance 	3409.4582018162
scalar RSUExampleScenario.node[92].veinsmobility 	totalCO2Emission 	708.52812088976
scalar RSUExampleScenario.node[93].veinsmobility 	startTime 	558.1
scalar RSUExampleScenario.node[93].veinsmobility 	totalTime 	226.8
scalar RSUExampleScenario.node[93].veinsmobility 	stopTime 	785
scalar RSUExampleScenario.node[93].veinsmobility 	minSpeed 	0.2503839971507
scalar RSUExampleScenario.node[93].veinsmobility 	maxSpeed 	18.99997880439
scalar RSUExampleScenario.node[93].veinsmobility 	totalDistance 	3409.3818270429
scalar RSUExampleScenario.node[93].veinsmobility 	totalCO2Emission 	706.51355291553
scalar RSUExampleScenario.node[94].veinsmobility 	startTime 	564.1
scalar RSUExampleScenario.node[94].veinsmobility 	totalTime 	227
scalar RSUExampleScenario.node[94].veinsmobility 	stopTime 	791.2
scalar RSUExampleScenario.node[94].veinsmobility 	minSpeed 	0.25674934487371
scalar RSUExampleScenario.node[94].veinsmobility 	maxSpeed 	18.999955666484
scalar RSUExampleScenario.node[94].veinsmobility 	totalDistance 	3409.3068534102
scalar RSUExampleScenario.node[94].veinsmobility 	totalCO2Emission 	707.47561506552
scalar RSUExampleScenario.node[95].veinsmobility 	startTime 	570.1
scalar RSUExampleScenario.node[95].veinsmobility 	totalTime 	226.8
scalar RSUExampleScenario.node[95].veinsmobility 	stopTime 	797
scalar RSUExampleScenario.node[95].veinsmobility 	minSpeed 	0.25698209505621
scalar RSUExampleScenario.node[95].veinsmobility 	maxSpeed 	18.999788866618
scalar RSUExampleScenario.node[95].veinsmobility 	totalDistance 	3409.4758451898
scalar RSUExampleScenario.node[95].veinsmobility 	totalCO2Emission 	710.0826534095
scalar RSUExampleScenario.node[96].veinsmobility 	startTime 	576.1
scalar RSUExampleScenario.node[96].veinsmobility 	totalTime 	227
scalar RSUExampleScenario.node[96].veinsmobility 	stopTime 	803.2
scalar RSUExampleScenario.node[96].veinsmobility 	minSpeed 	0.2555299010044
scalar RSUExampleScenario.node[96].veinsmobility 	maxSpeed 	18.999995743565
scalar RSUExampleScenario.node[96].veinsmobility 	totalDistance 	3409.1705860582
scalar RSUExampleScenario.node[96].veinsmobility 	totalCO2Emission 	707.83136606432
scalar RSUExampleScenario.node[97].veinsmobility 	startTime 	582.1
scalar RSUExampleScenario.node[97].veinsmobility 	totalTime 	227.3
scalar RSUExampleScenario.node[97].veinsmobility 	stopTime 	809.5
scalar RSUExampleScenario.node[97].veinsmobility 	minSpeed 	0.25703422866156
scalar RSUExampleScenario.node[97].veinsmobility 	maxSpeed 	18.999613413105
scalar RSUExampleScenario.node[97].veinsmobility 	totalDistance 	3409.4831104744
scalar RSUExampleScenario.node[97].veinsmobility 	totalCO2Emission 	707.054510064
scalar RSUExampleScenario.node[98].veinsmobility 	startTime 	588.1
scalar RSUExampleScenario.node[98].veinsmobility 	totalTime 	227
scalar RSUExampleScenario.node[98].veinsmobility 	stopTime 	815.2
scalar RSUExampleScenario.node[98].veinsmobility 	minSpeed 	0.25756636591768
scalar RSUExampleScenario.node[98].veinsmobility 	maxSpeed 	18.999824657964
scalar RSUExampleScenario.node[98].veinsmobility 	totalDistance 	3409.6790207392
scalar RSUExampleScenario.node[98].veinsmobility 	totalCO2Emission 	710.53565191952
scalar RSUExampleScenario.node[99].veinsmobility 	startTime 	594.1
scalar RSUExampleScenario.node[99].veinsmobility 	totalTime 	226.8
scalar RSUExampleScenario.node[99].veinsmobility 	stopTime 	821
scalar RSUExampleScenario.node[99].veinsmobility 	minSpeed 	0.25268075746763
scalar RSUExampleScenario.node[99].veinsmobility 	maxSpeed 	18.999061503725
scalar RSUExampleScenario.node[99].veinsmobility 	totalDistance 	3409.6433297188
scalar RSUExampleScenario.node[99].veinsmobility 	totalCO2Emission 	707.61856312797
scalar RSUExampleScenario.node[100].veinsmobility 	startTime 	600.1
scalar RSUExampleScenario.node[100].veinsmobility 	totalTime 	226.6
scalar RSUExampleScenario.node[100].veinsmobility 	stopTime 	826.8
scalar RSUExampleScenario.node[100].veinsmobility 	minSpeed 	0.2487306555456
scalar RSUExampleScenario.node[100].veinsmobility 	maxSpeed 	18.999492483914
scalar RSUExampleScenario.node[100].veinsmobility 	totalDistance 	3409.5263982275
scalar RSUExampleScenario.node[100].veinsmobility 	totalCO2Emission 	703.65195712882
scalar RSUExampleScenario.node[101].veinsmobility 	startTime 	606.1
scalar RSUExampleScenario.node[101].veinsmobility 	totalTime 	226.9
scalar RSUExampleScenario.node[101].veinsmobility 	stopTime 	833.1
scalar RSUExampleScenario.node[101].veinsmobility 	minSpeed 	0.25978546685167
scalar RSUExampleScenario.node[101].veinsmobility 	maxSpeed 	18.999917712491
scalar RSUExampleScenario.node[101].veinsmobility 	totalDistance 	3409.7304303444
scalar RSUExampleScenario.node[101].veinsmobility 	totalCO2Emission 	704.04847649161
scalar RSUExampleScenario.node[102].veinsmobility 	startTime 	612.1
scalar RSUExampleScenario.node[102].veinsmobility 	totalTime 	227.1
scalar RSUExampleScenario.node[102].veinsmobility 	stopTime 	839.3
scalar RSUExampleScenario.node[102].veinsmobility 	minSpeed 	0.25262033928512
scalar RSUExampleScenario.node[102].veinsmobility 	maxSpeed 	18.999875372001
scalar RSUExampleScenario.node[102].veinsmobility 	totalDistance 	3409.7836054338
scalar RSUExampleScenario.node[102].veinsmobility 	totalCO2Emission 	706.38040014053
scalar RSUExampleScenario.node[103].veinsmobility 	startTime 	618.1
scalar RSUExampleScenario.node[103].veinsmobility 	totalTime 	226.8
scalar RSUExampleScenario.node[103].veinsmobility 	stopTime 	845
scalar RSUExampleScenario.node[103].veinsmobility 	minSpeed 	0.24746167615964
scalar RSUExampleScenario.node[103].veinsmobility 	maxSpeed 	18.99954981426
scalar RSUExampleScenario.node[103].veinsmobility 	totalDistance 	3409.1745096796
scalar RSUExampleScenario.node[103].veinsmobility 	totalCO2Emission 	706.42971181904
scalar RSUExampleScenario.node[104].veinsmobility 	startTime 	624.1
scalar RSUExampleScenario.node[104].veinsmobility 	totalTime 	226.8
scalar RSUExampleScenario.node[104].veinsmobility 	stopTime 	851
scalar RSUExampleScenario.node[104].veinsmobility 	minSpeed 	0.2550742645273
scalar RSUExampleScenario.node[104].veinsmobility 	maxSpeed 	18.999763348075
scalar RSUExampleScenario.node[104].veinsmobility 	totalDistance 	3409.3640540915
scalar RSUExampleScenario.node[104].veinsmobility 	totalCO2Emission 	709.90326842144
scalar RSUExampleScenario.node[105].veinsmobility 	startTime 	630.1
scalar RSUExampleScenario.node[105].veinsmobility 	totalTime 	226.6
scalar RSUExampleScenario.node[105].veinsmobility 	stopTime 	856.8
scalar RSUExampleScenario.node[105].veinsmobility 	minSpeed 	0.24746840080968
scalar RSUExampleScenario.node[105].veinsmobility 	maxSpeed 	18.999829838057
scalar RSUExampleScenario.node[105].veinsmobility 	totalDistance 	3409.6252628039
scalar RSUExampleScenario.node[105].veinsmobility 	totalCO2Emission 	704.75469558245
scalar RSUExampleScenario.node[106].veinsmobility 	startTime 	636.1
scalar RSUExampleScenario.node[106].veinsmobility 	totalTime 	227
scalar RSUExampleScenario.node[106].veinsmobility 	stopTime 	863.2
scalar RSUExampleScenario.node[106].veinsmobility 	minSpeed 	0.25101046229876
scalar RSUExampleScenario.node[106].veinsmobility 	maxSpeed 	18.99997138934
scalar RSUExampleScenario.node[106].veinsmobility 	totalDistance 	3409.3928011865
scalar RSUExampleScenario.node[106].veinsmobility 	totalCO2Emission 	707.50071708733
scalar RSUExampleScenario.node[107].veinsmobility 	startTime 	642.1
scalar RSUExampleScenario.node[107].veinsmobility 	totalTime 	226.9
scalar RSUExampleScenario.node[107].veinsmobility 	stopTime 	869.1
scalar RSUExampleScenario.node[107].veinsmobility 	minSpeed 	0.25892748934845
scalar RSUExampleScenario.node[107].veinsmobility 	maxSpeed 	18.999915570638
scalar RSUExampleScenario.node[107].veinsmobility 	totalDistance 	3409.6081181949
scalar RSUExampleScenario.node[107].veinsmobility 	totalCO2Emission 	706.76496862906
scalar RSUExampleScenario.node[108].veinsmobility 	startTime 	648.1
scalar RSUExampleScenario.node[108].veinsmobility 	totalTime 	226.8
scalar RSUExampleScenario.node[108].veinsmobility 	stopTime 	875
scalar RSUExampleScenario.node[108].veinsmobility 	minSpeed 	0.25688280021236
scalar RSUExampleScenario.node[108].veinsmobility 	maxSpeed 	18.999975384835
scalar RSUExampleScenario.node[108].veinsmobility 	totalDistance 	3409.5610711784
scalar RSUExampleScenario.node[108].veinsmobility 	totalCO2Emission 	706.66779175784
scalar RSUExampleScenario.node[109].veinsmobility 	startTime 	654.1
scalar RSUExampleScenario.node[109].veinsmobility 	totalTime 	227.1
scalar RSUExampleScenario.node[109].veinsmobility 	stopTime 	881.3
scalar RSUExampleScenario.node[109].veinsmobility 	minSpeed 	0.25248491203273
scalar RSUExampleScenario.node[109].veinsmobility 	maxSpeed 	18.999982326524
scalar RSUExampleScenario.node[109].veinsmobility 	totalDistance 	3409.5618937383
scalar RSUExampleScenario.node[109].veinsmobility 	totalCO2Emission 	710.17114418496
scalar RSUExampleScenario.node[110].veinsmobility 	startTime 	660.1
scalar RSUExampleScenario.node[110].veinsmobility 	totalTime 	226.6
scalar RSUExampleScenario.node[110].veinsmobility 	stopTime 	886.8
scalar RSUExampleScenario.node[110].veinsmobility 	minSpeed 	0.25384205417032
scalar RSUExampleScenario.node[110].veinsmobility 	maxSpeed 	18.999994143841
scalar RSUExampleScenario.node[110].veinsmobility 	totalDistance 	3409.3090919014
scalar RSUExampleScenario.node[110].veinsmobility 	totalCO2Emission 	706.56346823707
scalar RSUExampleScenario.node[111].veinsmobility 	startTime 	666.1
scalar RSUExampleScenario.node[111].veinsmobility 	totalTime 	226.9
scalar RSUExampleScenario.node[111].veinsmobility 	stopTime 	893.1
scalar RSUExampleScenario.node[111].veinsmobility 	minSpeed 	0.25455105642625
scalar RSUExampleScenario.node[111].veinsmobility 	maxSpeed 	18.999953303735
scalar RSUExampleScenario.node[111].veinsmobility 	totalDistance 	3409.3770687116
scalar RSUExampleScenario.node[111].veinsmobility 	totalCO2Emission 	705.61639205135
scalar RSUExampleScenario.node[112].veinsmobility 	startTime 	672.1
scalar RSUExampleScenario.node[112].veinsmobility 	totalTime 	227
scalar RSUExampleScenario.node[112].veinsmobility 	stopTime 	899.2
scalar RSUExampleScenario.node[112].veinsmobility 	minSpeed 	0.25044222954591
scalar RSUExampleScenario.node[112].veinsmobility 	maxSpeed 	18.999616238016
scalar RSUExampleScenario.node[112].veinsmobility 	totalDistance 	3409.5259886083
scalar RSUExampleScenario.node[112].veinsmobility 	totalCO2Emission 	712.5470394987
scalar RSUExampleScenario.node[113].veinsmobility 	startTime 	678.1
scalar RSUExampleScenario.node[113].veinsmobility 	totalTime 	226.8
scalar RSUExampleScenario.node[113].veinsmobility 	stopTime 	905
scalar RSUExampleScenario.node[113].veinsmobility 	minSpeed 	0.25922554368037
scalar RSUExampleScenario.node[113].veinsmobility 	maxSpeed 	18.999919249075
scalar RSUExampleScenario.node[113].veinsmobility 	totalDistance 	3409.2139692467
scalar RSUExampleScenario.node[113].veinsmobility 	totalCO2Emission 	705.74351722025
scalar RSUExampleScenario.node[114].veinsmobility 	startTime 	684.1
scalar RSUExampleScenario.node[114].veinsmobility 	totalTime 	226.7
scalar RSUExampleScenario.node[114].veinsmobility 	stopTime 	910.9
scalar RSUExampleScenario.node[114].veinsmobility 	minSpeed 	0.24798934238357
scalar RSUExampleScenario.node[114].veinsmobility 	maxSpeed 	18.999993961598
scalar RSUExampleScenario.node[114].veinsmobility 	totalDistance 	3409.6927431312
scalar RSUExampleScenario.node[114].veinsmobility 	totalCO2Emission 	709.05524900169
scalar RSUExampleScenario.node[115].veinsmobility 	startTime 	690.1
scalar RSUExampleScenario.node[115].veinsmobility 	totalTime 	226.9
scalar RSUExampleScenario.node[115].veinsmobility 	stopTime 	917.1
scalar RSUExampleScenario.node[115].veinsmobility 	minSpeed 	0.25651083723642
scalar RSUExampleScenario.node[115].veinsmobility 	maxSpeed 	18.999998344674
scalar RSUExampleScenario.node[115].veinsmobility 	totalDistance 	3409.2504726569
scalar RSUExampleScenario.node[115].veinsmobility 	totalCO2Emission 	705.62885181986
scalar RSUExampleScenario.node[116].veinsmobility 	startTime 	696.1
scalar RSUExampleScenario.node[116].veinsmobility 	totalTime 	226.8
scalar RSUExampleScenario.node[116].veinsmobility 	stopTime 	923
scalar RSUExampleScenario.node[116].veinsmobility 	minSpeed 	0.25910913232504
scalar RSUExampleScenario.node[116].veinsmobility 	maxSpeed 	18.999660931842
scalar RSUExampleScenario.node[116].veinsmobility 	totalDistance 	3409.4860757443
scalar RSUExampleScenario.node[116].veinsmobility 	totalCO2Emission 	706.97162971258
scalar RSUExampleScenario.node[117].veinsmobility 	startTime 	702.1
scalar RSUExampleScenario.node[117].veinsmobility 	totalTime 	227
scalar RSUExampleScenario.node[117].veinsmobility 	stopTime 	929.2
scalar RSUExampleScenario.node[117].veinsmobility 	minSpeed 	0.25667452562042
scalar RSUExampleScenario.node[117].veinsmobility 	maxSpeed 	18.999769165006
scalar RSUExampleScenario.node[117].veinsmobility 	totalDistance 	3409.4655852253
scalar RSUExampleScenario.node[117].veinsmobility 	totalCO2Emission 	707.72742537795
scalar RSUExampleScenario.node[118].veinsmobility 	startTime 	708.1
scalar RSUExampleScenario.node[118].veinsmobility 	totalTime 	226.8
scalar RSUExampleScenario.node[118].veinsmobility 	stopTime 	935
scalar RSUExampleScenario.node[118].veinsmobility 	minSpeed 	0.25678153942665
scalar RSUExampleScenario.node[118].veinsmobility 	maxSpeed 	18.999719710874
scalar RSUExampleScenario.node[118].veinsmobility 	totalDistance 	3409.2541655351
scalar RSUExampleScenario.node[118].veinsmobility 	totalCO2Emission 	704.0358875027
scalar RSUExampleScenario.node[119].veinsmobility 	startTime 	714.1
scalar RSUExampleScenario.node[119].veinsmobility 	totalTime 	227
scalar RSUExampleScenario.node[119].veinsmobility 	stopTime 	941.2
scalar RSUExampleScenario.node[119].veinsmobility 	minSpeed 	0.24854310491844
scalar RSUExampleScenario.node[119].veinsmobility 	maxSpeed 	18.999222577736
scalar RSUExampleScenario.node[119].veinsmobility 	totalDistance 	3409.7287661262
scalar RSUExampleScenario.node[119].veinsmobility 	totalCO2Emission 	708.58260835604
scalar RSUExampleScenario.node[120].veinsmobility 	startTime 	720.1
scalar RSUExampleScenario.node[120].veinsmobility 	totalTime 	226.7
scalar RSUExampleScenario.node[120].veinsmobility 	stopTime 	946.9
scalar RSUExampleScenario.node[120].veinsmobility 	minSpeed 	0.25024000429502
scalar RSUExampleScenario.node[120].veinsmobility 	maxSpeed 	18.999824676518
scalar RSUExampleScenario.node[120].veinsmobility 	totalDistance 	3409.5344083186
scalar RSUExampleScenario.node[120].veinsmobility 	totalCO2Emission 	705.34950725579
scalar RSUExampleScenario.node[121].veinsmobility 	startTime 	726.1
scalar RSUExampleScenario.node[121].veinsmobility 	totalTime 	226.8
scalar RSUExampleScenario.node[121].veinsmobility 	stopTime 	953
scalar RSUExampleScenario.node[121].veinsmobility 	minSpeed 	0.25580142007908
scalar RSUExampleScenario.node[121].veinsmobility 	maxSpeed 	18.999609498971
scalar RSUExampleScenario.node[121].veinsmobility 	totalDistance 	3409.4950489029
scalar RSUExampleScenario.node[121].veinsmobility 	totalCO2Emission 	708.94356780092
scalar RSUExampleScenario.node[122].veinsmobility 	startTime 	732.1
scalar RSUExampleScenario.node[122].veinsmobility 	totalTime 	226.8
scalar RSUExampleScenario.node[122].veinsmobility 	stopTime 	959
scalar RSUExampleScenario.node[122].veinsmobility 	minSpeed 	0.25492640749435
scalar RSUExampleScenario.node[122].veinsmobility 	maxSpeed 	18.999540931
scalar RSUExampleScenario.node[122].veinsmobility 	totalDistance 	3409.1933022584
scalar RSUExampleScenario.node[122].veinsmobility 	totalCO2Emission 	707.14895581119
scalar RSUExampleScenario.node[123].veinsmobility 	startTime 	738.1
scalar RSUExampleScenario.node[123].veinsmobility 	totalTime 	226.9
scalar RSUExampleScenario.node[123].veinsmobility 	stopTime 	965.1
scalar RSUExampleScenario.node[123].veinsmobility 	minSpeed 	0.24826440173178
scalar RSUExampleScenario.node[123].veinsmobility 	maxSpeed 	18.999922923457
scalar RSUExampleScenario.node[123].veinsmobility 	totalDistance 	3409.8543792774
scalar RSUExampleScenario.node[123].veinsmobility 	totalCO2Emission 	706.0127625254
scalar RSUExampleScenario.node[124].veinsmobility 	startTime 	744.1
scalar RSUExampleScenario.node[124].veinsmobility 	totalTime 	227
scalar RSUExampleScenario.node[124].veinsmobility 	stopTime 	971.2
scalar RSUExampleScenario.node[124].veinsmobility 	minSpeed 	0.24959258431615
scalar RSUExampleScenario.node[124].veinsmobility 	maxSpeed 	18.99994291092
scalar RSUExampleScenario.node[124].veinsmobility 	totalDistance 	3409.7425333383
scalar RSUExampleScenario.node[124].veinsmobility 	totalCO2Emission 	705.82274944504
scalar RSUExampleScenario.node[125].veinsmobility 	startTime 	750.1
scalar RSUExampleScenario.node[125].veinsmobility 	totalTime 	226.9
scalar RSUExampleScenario.node[125].veinsmobility 	stopTime 	977.1
scalar RSUExampleScenario.node[125].veinsmobility 	minSpeed 	0.25315497990325
scalar RSUExampleScenario.node[125].veinsmobility 	maxSpeed 	18.999810138776
scalar RSUExampleScenario.node[125].veinsmobility 	totalDistance 	3409.5560700922
scalar RSUExampleScenario.node[125].veinsmobility 	totalCO2Emission 	703.87412564321
scalar RSUExampleScenario.node[126].veinsmobility 	startTime 	756.1
scalar RSUExampleScenario.node[126].veinsmobility 	totalTime 	226.7
scalar RSUExampleScenario.node[126].veinsmobility 	stopTime 	982.9
scalar RSUExampleScenario.node[126].veinsmobility 	minSpeed 	0.25633967222762
scalar RSUExampleScenario.node[126].veinsmobility 	maxSpeed 	18.999810199433
scalar RSUExampleScenario.node[126].veinsmobility 	totalDistance 	3409.3108595234
scalar RSUExampleScenario.node[126].veinsmobility 	totalCO2Emission 	704.57327595597
scalar RSUExampleScenario.node[127].veinsmobility 	startTime 	762.1
scalar RSUExampleScenario.node[127].veinsmobility 	totalTime 	226.9
scalar RSUExampleScenario.node[127].veinsmobility 	stopTime 	989.1
scalar RSUExampleScenario.node[127].veinsmobility 	minSpeed 	0.25089664857206
scalar RSUExampleScenario.node[127].veinsmobility 	maxSpeed 	18.999789664543
scalar RSUExampleScenario.node[127].veinsmobility 	totalDistance 	3409.4383880901
scalar RSUExampleScenario.node[127].veinsmobility 	totalCO2Emission 	709.18003637854
scalar RSUExampleScenario.node[128].veinsmobility 	startTime 	768.1
scalar RSUExampleScenario.node[128].veinsmobility 	totalTime 	226.7
scalar RSUExampleScenario.node[128].veinsmobility 	stopTime 	994.9
scalar RSUExampleScenario.node[128].veinsmobility 	minSpeed 	0.25370052882121
scalar RSUExampleScenario.node[128].veinsmobility 	maxSpeed 	18.999628710423
scalar RSUExampleScenario.node[128].veinsmobility 	totalDistance 	3409.3258765746
scalar RSUExampleScenario.node[128].veinsmobility 	totalCO2Emission 	702.37105065286
scalar RSUExampleScenario.node[129].veinsmobility 	startTime 	774.1
scalar RSUExampleScenario.node[129].veinsmobility 	totalTime 	226.6
scalar RSUExampleScenario.node[129].veinsmobility 	stopTime 	1000.8
scalar RSUExampleScenario.node[129].veinsmobility 	minSpeed 	0.25630492837192
scalar RSUExampleScenario.node[129].veinsmobility 	maxSpeed 	18.999998549588
scalar RSUExampleScenario.node[129].veinsmobility 	totalDistance 	3409.5998939535
scalar RSUExampleScenario.node[129].veinsmobility 	totalCO2Emission 	707.5742084786
scalar RSUExampleScenario.node[130].veinsmobility 	startTime 	780.1
scalar RSUExampleScenario.node[130].veinsmobility 	totalTime 	226.8
scalar RSUExampleScenario.node[130].veinsmobility 	stopTime 	1007
scalar RSUExampleScenario.node[130].veinsmobility 	minSpeed 	0.25916658997186
scalar RSUExampleScenario.node[130].veinsmobility 	maxSpeed 	18.999953022273
scalar RSUExampleScenario.node[130].veinsmobility 	totalDistance 	3409.645335264
scalar RSUExampleScenario.node[130].veinsmobility 	totalCO2Emission 	706.16165277195
scalar RSUExampleScenario.node[131].veinsmobility 	startTime 	786.1
scalar RSUExampleScenario.node[131].veinsmobility 	totalTime 	226.8
scalar RSUExampleScenario.node[131].veinsmobility 	stopTime 	1013
scalar RSUExampleScenario.node[131].veinsmobility 	minSpeed 	0.25006348132645
scalar RSUExampleScenario.node[131].veinsmobility 	maxSpeed 	18.999845222668
scalar RSUExampleScenario.node[131].veinsmobility 	totalDistance 	3409.2085500298
scalar RSUExampleScenario.node[131].veinsmobility 	totalCO2Emission 	704.71335984173
scalar RSUExampleScenario.node[132].veinsmobility 	startTime 	792.1
scalar RSUExampleScenario.node[132].veinsmobility 	totalTime 	227
scalar RSUExampleScenario.node[132].veinsmobility 	stopTime 	1019.2
scalar RSUExampleScenario.node[132].veinsmobility 	minSpeed 	0.25538758840016
scalar RSUExampleScenario.node[132].veinsmobility 	maxSpeed 	18.999878519478
scalar RSUExampleScenario.node[132].veinsmobility 	totalDistance 	3409.3777145897
scalar RSUExampleScenario.node[132].veinsmobility 	totalCO2Emission 	709.57011933629
scalar RSUExampleScenario.node[133].veinsmobility 	startTime 	798.1
scalar RSUExampleScenario.node[133].veinsmobility 	totalTime 	227.1
scalar RSUExampleScenario.node[133].veinsmobility 	stopTime 	1025.3
scalar RSUExampleScenario.node[133].veinsmobility 	minSpeed 	0.25565377708618
scalar RSUExampleScenario.node[133].veinsmobility 	maxSpeed 	18.99935551926
scalar RSUExampleScenario.node[133].veinsmobility 	totalDistance 	3409.4935718129
scalar RSUExampleScenario.node[133].veinsmobility 	totalCO2Emission 	705.28942958532
scalar RSUExampleScenario.node[134].veinsmobility 	startTime 	804.1
scalar RSUExampleScenario.node[134].veinsmobility 	totalTime 	227
scalar RSUExampleScenario.node[134].veinsmobility 	stopTime 	1031.2
scalar RSUExampleScenario.node[134].veinsmobility 	minSpeed 	0.25118493328569
scalar RSUExampleScenario.node[134].veinsmobility 	maxSpeed 	18.999846756982
scalar RSUExampleScenario.node[134].veinsmobility 	totalDistance 	3409.9401552056
scalar RSUExampleScenario.node[134].veinsmobility 	totalCO2Emission 	709.90302499271
scalar RSUExampleScenario.node[135].veinsmobility 	startTime 	810.1
scalar RSUExampleScenario.node[135].veinsmobility 	totalTime 	227
scalar RSUExampleScenario.node[135].veinsmobility 	stopTime 	1037.2
scalar RSUExampleScenario.node[135].veinsmobility 	minSpeed 	0.25339398690476
scalar RSUExampleScenario.node[135].veinsmobility 	maxSpeed 	18.999957039803
scalar RSUExampleScenario.node[135].veinsmobility 	totalDistance 	3409.5657019319
scalar RSUExampleScenario.node[135].veinsmobility 	totalCO2Emission 	700.57224890919
scalar RSUExampleScenario.node[136].veinsmobility 	startTime 	816.1
scalar RSUExampleScenario.node[136].veinsmobility 	totalTime 	226.8
scalar RSUExampleScenario.node[136].veinsmobility 	stopTime 	1043
scalar RSUExampleScenario.node[136].veinsmobility 	minSpeed 	0.25593919765553
scalar RSUExampleScenario.node[136].veinsmobility 	maxSpeed 	18.999882208509
scalar RSUExampleScenario.node[136].veinsmobility 	totalDistance 	3409.7679211221
scalar RSUExampleScenario.node[136].veinsmobility 	totalCO2Emission 	708.81881202126
scalar RSUExampleScenario.node[137].veinsmobility 	startTime 	822.1
scalar RSUExampleScenario.node[137].veinsmobility 	totalTime 	226.7
scalar RSUExampleScenario.node[137].veinsmobility 	stopTime 	1048.9
scalar RSUExampleScenario.node[137].veinsmobility 	minSpeed 	0.25037047224422
scalar RSUExampleScenario.node[137].veinsmobility 	maxSpeed 	18.999731457273
scalar RSUExampleScenario.node[137].veinsmobility 	totalDistance 	3409.4238353398
scalar RSUExampleScenario.node[137].veinsmobility 	totalCO2Emission 	707.67422420511
scalar RSUExampleScenario.node[138].veinsmobility 	startTime 	828.1
scalar RSUExampleScenario.node[138].veinsmobility 	totalTime 	227.1
scalar RSUExampleScenario.node[138].veinsmobility 	stopTime 	1055.3
scalar RSUExampleScenario.node[138].veinsmobility 	minSpeed 	0.258540527954
scalar RSUExampleScenario.node[138].veinsmobility 	maxSpeed 	18.999780240334
scalar RSUExampleScenario.node[138].veinsmobility 	totalDistance 	3409.3280771187
scalar RSUExampleScenario.node[138].veinsmobility 	totalCO2Emission 	710.9671628929
scalar RSUExampleScenario.node[139].veinsmobility 	startTime 	834.1
scalar RSUExampleScenario.node[139].veinsmobility 	totalTime 	227.1
scalar RSUExampleScenario.node[139].veinsmobility 	stopTime 	1061.3
scalar RSUExampleScenario.node[139].veinsmobility 	minSpeed 	0.24750598313636
scalar RSUExampleScenario.node[139].veinsmobility 	maxSpeed 	18.999994691026
scalar RSUExampleScenario.node[139].veinsmobility 	totalDistance 	3409.8640102824
scalar RSUExampleScenario.node[139].veinsmobility 	totalCO2Emission 	710.71743341319
scalar RSUExampleScenario.node[140].veinsmobility 	startTime 	840.1
scalar RSUExampleScenario.node[140].veinsmobility 	totalTime 	227
scalar RSUExampleScenario.node[140].veinsmobility 	stopTime 	1067.2
scalar RSUExampleScenario.node[140].veinsmobility 	minSpeed 	0.25746127174026
scalar RSUExampleScenario.node[140].veinsmobility 	maxSpeed 	18.99982113813
scalar RSUExampleScenario.node[140].veinsmobility 	totalDistance 	3409.3972273497
scalar RSUExampleScenario.node[140].veinsmobility 	totalCO2Emission 	707.83364211575
scalar RSUExampleScenario.node[141].veinsmobility 	startTime 	846.1
scalar RSUExampleScenario.node[141].veinsmobility 	totalTime 	227
scalar RSUExampleScenario.node[141].veinsmobility 	stopTime 	1073.2
scalar RSUExampleScenario.node[141].veinsmobility 	minSpeed 	0.25126426681806
scalar RSUExampleScenario.node[141].veinsmobility 	maxSpeed 	18.999776763238
scalar RSUExampleScenario.node[141].veinsmobility 	totalDistance 	3409.4026403169
scalar RSUExampleScenario.node[141].veinsmobility 	totalCO2Emission 	708.57389016657
scalar RSUExampleScenario.node[142].veinsmobility 	startTime 	852.1
scalar RSUExampleScenario.node[142].veinsmobility 	totalTime 	227.1
scalar RSUExampleScenario.node[142].veinsmobility 	stopTime 	1079.3
scalar RSUExampleScenario.node[142].veinsmobility 	minSpeed 	0.24724711424462
scalar RSUExampleScenario.node[142].veinsmobility 	maxSpeed 	18.999912080648
scalar RSUExampleScenario.node[142].veinsmobility 	totalDistance 	3409.8008776639
scalar RSUExampleScenario.node[142].veinsmobility 	totalCO2Emission 	712.8571148088
scalar RSUExampleScenario.node[143].veinsmobility 	startTime 	858.1
scalar RSUExampleScenario.node[143].veinsmobility 	totalTime 	226.8
scalar RSUExampleScenario.node[143].veinsmobility 	stopTime 	1085
scalar RSUExampleScenario.node[143].veinsmobility 	minSpeed 	0.25372222931893
scalar RSUExampleScenario.node[143].veinsmobility 	maxSpeed 	18.999891448356
scalar RSUExampleScenario.node[143].veinsmobility 	totalDistance 	3409.170467024
scalar RSUExampleScenario.node[143].veinsmobility 	totalCO2Emission 	705.03415006149
scalar RSUExampleScenario.node[144].veinsmobility 	startTime 	864.1
scalar RSUExampleScenario.node[144].veinsmobility 	totalTime 	226.9
scalar RSUExampleScenario.node[144].veinsmobility 	stopTime 	1091.1
scalar RSUExampleScenario.node[144].veinsmobility 	minSpeed 	0.25639925981732
scalar RSUExampleScenario.node[144].veinsmobility 	maxSpeed 	18.999959198274
scalar RSUExampleScenario.node[144].veinsmobility 	totalDistance 	3409.6905707171
scalar RSUExampleScenario.node[144].veinsmobility 	totalCO2Emission 	706.54885847609
scalar RSUExampleScenario.node[145].veinsmobility 	startTime 	870.1
scalar RSUExampleScenario.node[145].veinsmobility 	totalTime 	226.6
scalar RSUExampleScenario.node[145].veinsmobility 	stopTime 	1096.8
scalar RSUExampleScenario.node[145].veinsmobility 	minSpeed 	0.25017560145957
scalar RSUExampleScenario.node[145].veinsmobility 	maxSpeed 	18.999895683785
scalar RSUExampleScenario.node[145].veinsmobility 	totalDistance 	3409.6553796759
scalar RSUExampleScenario.node[145].veinsmobility 	totalCO2Emission 	706.804194831
scalar RSUExampleScenario.node[146].veinsmobility 	startTime 	876.1
scalar RSUExampleScenario.node[146].veinsmobility 	totalTime 	226.8
scalar RSUExampleScenario.node[146].veinsmobility 	stopTime 	1103
scalar RSUExampleScenario.node[146].veinsmobility 	minSpeed 	0.2541738015383
scalar RSUExampleScenario.node[146].veinsmobility 	maxSpeed 	18.999846152954
scalar RSUExampleScenario.node[146].veinsmobility 	totalDistance 	3409.4359043727
scalar RSUExampleScenario.node[146].veinsmobility 	totalCO2Emission 	708.63033345441
scalar RSUExampleScenario.node[147].veinsmobility 	startTime 	882.1
scalar RSUExampleScenario.node[147].veinsmobility 	totalTime 	227.1
scalar RSUExampleScenario.node[147].veinsmobility 	stopTime 	1109.3
scalar RSUExampleScenario.node[147].veinsmobility 	minSpeed 	0.24829118986288
scalar RSUExampleScenario.node[147].veinsmobility 	maxSpeed 	18.999959618333
scalar RSUExampleScenario.node[147].veinsmobility 	totalDistance 	3409.3696683897
scalar RSUExampleScenario.node[147].veinsmobility 	totalCO2Emission 	704.30746147151
scalar RSUExampleScenario.node[148].veinsmobility 	startTime 	888.1
scalar RSUExampleScenario.node[148].veinsmobility 	totalTime 	227
scalar RSUExampleScenario.node[148].veinsmobility 	stopTime 	1115.2
scalar RSUExampleScenario.node[148].veinsmobility 	minSpeed 	0.25235773775773
scalar RSUExampleScenario.node[148].veinsmobility 	maxSpeed 	18.999633868965
scalar RSUExampleScenario.node[148].veinsmobility 	totalDistance 	3409.6028051551
scalar RSUExampleScenario.node[148].veinsmobility 	totalCO2Emission 	714.3416993423
scalar RSUExampleScenario.node[149].veinsmobility 	startTime 	894.1
scalar RSUExampleScenario.node[149].veinsmobility 	totalTime 	226.9
scalar RSUExampleScenario.node[149].veinsmobility 	stopTime 	1121.1
scalar RSUExampleScenario.node[149].veinsmobility 	minSpeed 	0.25581266765576
scalar RSUExampleScenario.node[149].veinsmobility 	maxSpeed 	18.999816464421
scalar RSUExampleScenario.node[149].veinsmobility 	totalDistance 	3409.6155737167
scalar RSUExampleScenario.node[149].veinsmobility 	totalCO2Emission 	708.38874549114
scalar RSUExampleScenario.node[150].veinsmobility 	startTime 	900.1
scalar RSUExampleScenario.node[150].veinsmobility 	totalTime 	227
scalar RSUExampleScenario.node[150].veinsmobility 	stopTime 	1127.2
scalar RSUExampleScenario.node[150].veinsmobility 	minSpeed 	0.24823291711742
scalar RSUExampleScenario.node[150].veinsmobility 	maxSpeed 	18.999857907738
scalar RSUExampleScenario.node[150].veinsmobility 	totalDistance 	3409.421711743
scalar RSUExampleScenario.node[150].veinsmobility 	totalCO2Emission 	703.55553067609
scalar RSUExampleScenario.node[151].veinsmobility 	startTime 	906.1
scalar RSUExampleScenario.node[151].veinsmobility 	totalTime 	227
scalar RSUExampleScenario.node[151].veinsmobility 	stopTime 	1133.2
scalar RSUExampleScenario.node[151].veinsmobility 	minSpeed 	0.25181459718756
scalar RSUExampleScenario.node[151].veinsmobility 	maxSpeed 	18.999733383104
scalar RSUExampleScenario.node[151].veinsmobility 	totalDistance 	3409.3139964732
scalar RSUExampleScenario.node[151].veinsmobility 	totalCO2Emission 	705.75148975694
scalar RSUExampleScenario.node[152].veinsmobility 	startTime 	912.1
scalar RSUExampleScenario.node[152].veinsmobility 	totalTime 	226.8
scalar RSUExampleScenario.node[152].veinsmobility 	stopTime 	1139
scalar RSUExampleScenario.node[152].veinsmobility 	minSpeed 	0.25265515013598
scalar RSUExampleScenario.node[152].veinsmobility 	maxSpeed 	18.999994377994
scalar RSUExampleScenario.node[152].veinsmobility 	totalDistance 	3409.3974811968
scalar RSUExampleScenario.node[152].veinsmobility 	totalCO2Emission 	703.65647572851
[...]
scalar RSUExampleScenario.node[262].veinsmobility 	startTime 	1572.1
scalar RSUExampleScenario.node[262].veinsmobility 	totalTime 	226.9
scalar RSUExampleScenario.node[262].veinsmobility 	stopTime 	1799.1
scalar RSUExampleScenario.node[262].veinsmobility 	minSpeed 	0.2514518197577
scalar RSUExampleScenario.node[262].veinsmobility 	maxSpeed 	18.999983692337
scalar RSUExampleScenario.node[262].veinsmobility 	totalDistance 	3409.1025362647
scalar RSUExampleScenario.node[262].veinsmobility 	totalCO2Emission 	707.76377770303
scalar RSUExampleScenario.node[263].veinsmobility 	startTime 	1578.1
scalar RSUExampleScenario.node[263].veinsmobility 	totalTime 	227.1
scalar RSUExampleScenario.node[263].veinsmobility 	stopTime 	1805.3
scalar RSUExampleScenario.node[263].veinsmobility 	minSpeed 	0.24702121700603
scalar RSUExampleScenario.node[263].veinsmobility 	maxSpeed 	18.999877024572
scalar RSUExampleScenario.node[263].veinsmobility 	totalDistance 	3409.2915960617
scalar RSUExampleScenario.node[263].veinsmobility 	totalCO2Emission 	706.00500161349
scalar RSUExampleScenario.node[264].veinsmobility 	startTime 	1584.1
scalar RSUExampleScenario.node[264].veinsmobility 	totalTime 	226.8
scalar RSUExampleScenario.node[264].veinsmobility 	stopTime 	1811
scalar RSUExampleScenario.node[264].veinsmobility 	minSpeed 	0.25586845187657
scalar RSUExampleScenario.node[264].veinsmobility 	maxSpeed 	18.999903809831
scalar RSUExampleScenario.node[264].veinsmobility 	totalDistance 	3409.3578819152
scalar RSUExampleScenario.node[264].veinsmobility 	totalCO2Emission 	705.55651299955
scalar RSUExampleScenario.node[265].veinsmobility 	startTime 	1590.1
scalar RSUExampleScenario.node[265].veinsmobility 	totalTime 	226.8
scalar RSUExampleScenario.node[265].veinsmobility 	stopTime 	1817
scalar RSUExampleScenario.node[265].veinsmobility 	minSpeed 	0.25334348348156
scalar RSUExampleScenario.node[265].veinsmobility 	maxSpeed 	18.99943128756
scalar RSUExampleScenario.node[265].veinsmobility 	totalDistance 	3409.592517265
scalar RSUExampleScenario.node[265].veinsmobility 	totalCO2Emission 	700.77794354815
scalar RSUExampleScenario.node[266].veinsmobility 	startTime 	1596.1
scalar RSUExampleScenario.node[266].veinsmobility 	totalTime 	227.2
scalar RSUExampleScenario.node[266].veinsmobility 	stopTime 	1823.4
scalar RSUExampleScenario.node[266].veinsmobility 	minSpeed 	0.25746533190575
scalar RSUExampleScenario.node[266].veinsmobility 	maxSpeed 	18.998866004997
scalar RSUExampleScenario.node[266].veinsmobility 	totalDistance 	3409.4644010061
scalar RSUExampleScenario.node[266].veinsmobility 	totalCO2Emission 	705.35710720672
scalar RSUExampleScenario.node[267].veinsmobility 	startTime 	1602.1
scalar RSUExampleScenario.node[267].veinsmobility 	totalTime 	226.9
scalar RSUExampleScenario.node[267].veinsmobility 	stopTime 	1829.1
scalar RSUExampleScenario.node[267].veinsmobility 	minSpeed 	0.25753718095878
scalar RSUExampleScenario.node[267].veinsmobility 	maxSpeed 	18.999931089063
scalar RSUExampleScenario.node[267].veinsmobility 	totalDistance 	3409.4265117592
scalar RSUExampleScenario.node[267].veinsmobility 	totalCO2Emission 	707.86470261615
scalar RSUExampleScenario.node[268].veinsmobility 	startTime 	1608.1
scalar RSUExampleScenario.node[268].veinsmobility 	totalTime 	226.9
scalar RSUExampleScenario.node[268].veinsmobility 	stopTime 	1835.1
scalar RSUExampleScenario.node[268].veinsmobility 	minSpeed 	0.25382926446712
scalar RSUExampleScenario.node[268].veinsmobility 	maxSpeed 	18.99980308122
scalar RSUExampleScenario.node[268].veinsmobility 	totalDistance 	3409.5313430878
scalar RSUExampleScenario.node[268].veinsmobility 	totalCO2Emission 	711.65055605954
scalar RSUExampleScenario.node[269].veinsmobility 	startTime 	1614.1
scalar RSUExampleScenario.node[269].veinsmobility 	totalTime 	227.1
scalar RSUExampleScenario.node[269].veinsmobility 	stopTime 	1841.3
scalar RSUExampleScenario.node[269].veinsmobility 	minSpeed 	0.25856847780664
scalar RSUExampleScenario.node[269].veinsmobility 	maxSpeed 	18.99931564664
scalar RSUExampleScenario.node[269].veinsmobility 	totalDistance 	3409.2767394058
scalar RSUExampleScenario.node[269].veinsmobility 	totalCO2Emission 	703.47329328782
scalar RSUExampleScenario.node[270].veinsmobility 	startTime 	1620.1
scalar RSUExampleScenario.node[270].veinsmobility 	totalTime 	227.3
scalar RSUExampleScenario.node[270].veinsmobility 	stopTime 	1847.5
scalar RSUExampleScenario.node[270].veinsmobility 	minSpeed 	0.24801459332486
scalar RSUExampleScenario.node[270].veinsmobility 	maxSpeed 	18.999876680365
scalar RSUExampleScenario.node[270].veinsmobility 	totalDistance 	3409.364811815
scalar RSUExampleScenario.node[270].veinsmobility 	totalCO2Emission 	703.40314922996
scalar RSUExampleScenario.node[271].veinsmobility 	startTime 	1626.1
scalar RSUExampleScenario.node[271].veinsmobility 	totalTime 	226.9
scalar RSUExampleScenario.node[271].veinsmobility 	stopTime 	1853.1
scalar RSUExampleScenario.node[271].veinsmobility 	minSpeed 	0.25159569865442
scalar RSUExampleScenario.node[271].veinsmobility 	maxSpeed 	18.99956294091
scalar RSUExampleScenario.node[271].veinsmobility 	totalDistance 	3409.6552725628
scalar RSUExampleScenario.node[271].veinsmobility 	totalCO2Emission 	705.51685231781
scalar RSUExampleScenario.node[272].veinsmobility 	startTime 	1632.1
scalar RSUExampleScenario.node[272].veinsmobility 	totalTime 	226.5
scalar RSUExampleScenario.node[272].veinsmobility 	stopTime 	1858.7
scalar RSUExampleScenario.node[272].veinsmobility 	minSpeed 	0.2575770589516
scalar RSUExampleScenario.node[272].veinsmobility 	maxSpeed 	18.999846278082
scalar RSUExampleScenario.node[272].veinsmobility 	totalDistance 	3409.8913744156
scalar RSUExampleScenario.node[272].veinsmobility 	totalCO2Emission 	709.63639158707
scalar RSUExampleScenario.node[273].veinsmobility 	startTime 	1638.1
scalar RSUExampleScenario.node[273].veinsmobility 	totalTime 	226.8
scalar RSUExampleScenario.node[273].veinsmobility 	stopTime 	1865
scalar RSUExampleScenario.node[273].veinsmobility 	minSpeed 	0.24947433847282
scalar RSUExampleScenario.node[273].veinsmobility 	maxSpeed 	18.999965500613
scalar RSUExampleScenario.node[273].veinsmobility 	totalDistance 	3409.3471057477
scalar RSUExampleScenario.node[273].veinsmobility 	totalCO2Emission 	706.16756567058
scalar RSUExampleScenario.node[274].veinsmobility 	startTime 	1644.1
scalar RSUExampleScenario.node[274].veinsmobility 	totalTime 	226.7
scalar RSUExampleScenario.node[274].veinsmobility 	stopTime 	1870.9
scalar RSUExampleScenario.node[274].veinsmobility 	minSpeed 	0.24701959303487
scalar RSUExampleScenario.node[274].veinsmobility 	maxSpeed 	18.999856665146
scalar RSUExampleScenario.node[274].veinsmobility 	totalDistance 	3409.4795798903
scalar RSUExampleScenario.node[274].veinsmobility 	totalCO2Emission 	706.31793264804
scalar RSUExampleScenario.node[275].veinsmobility 	startTime 	1650.1
scalar RSUExampleScenario.node[275].veinsmobility 	totalTime 	226.9
scalar RSUExampleScenario.node[275].veinsmobility 	stopTime 	1877.1
scalar RSUExampleScenario.node[275].veinsmobility 	minSpeed 	0.25100566014694
scalar RSUExampleScenario.node[275].veinsmobility 	maxSpeed 	18.99994514718
scalar RSUExampleScenario.node[275].veinsmobility 	totalDistance 	3409.3034950378
scalar RSUExampleScenario.node[275].veinsmobility 	totalCO2Emission 	706.63415292556
scalar RSUExampleScenario.node[276].veinsmobility 	startTime 	1656.1
scalar RSUExampleScenario.node[276].veinsmobility 	totalTime 	226.9
scalar RSUExampleScenario.node[276].veinsmobility 	stopTime 	1883.1
scalar RSUExampleScenario.node[276].veinsmobility 	minSpeed 	0.2527393353628
scalar RSUExampleScenario.node[276].veinsmobility 	maxSpeed 	18.999910949625
scalar RSUExampleScenario.node[276].veinsmobility 	totalDistance 	3409.4750156746
scalar RSUExampleScenario.node[276].veinsmobility 	totalCO2Emission 	711.44871100762
scalar RSUExampleScenario.node[277].veinsmobility 	startTime 	1662.1
scalar RSUExampleScenario.node[277].veinsmobility 	totalTime 	226.9
scalar RSUExampleScenario.node[277].veinsmobility 	stopTime 	1889.1
scalar RSUExampleScenario.node[277].veinsmobility 	minSpeed 	0.25001051691035
scalar RSUExampleScenario.node[277].veinsmobility 	maxSpeed 	18.999864443049
scalar RSUExampleScenario.node[277].veinsmobility 	totalDistance 	3409.3119912598
scalar RSUExampleScenario.node[277].veinsmobility 	totalCO2Emission 	709.70494206362
scalar RSUExampleScenario.node[278].veinsmobility 	startTime 	1668.1
scalar RSUExampleScenario.node[278].veinsmobility 	totalTime 	226.8
scalar RSUExampleScenario.node[278].veinsmobility 	stopTime 	1895
scalar RSUExampleScenario.node[278].veinsmobility 	minSpeed 	0.25035001944425
scalar RSUExampleScenario.node[278].veinsmobility 	maxSpeed 	18.999573114009
scalar RSUExampleScenario.node[278].veinsmobility 	totalDistance 	3409.5553900239
scalar RSUExampleScenario.node[278].veinsmobility 	totalCO2Emission 	703.99029057278
scalar RSUExampleScenario.node[279].veinsmobility 	startTime 	1674.1
scalar RSUExampleScenario.node[279].veinsmobility 	totalTime 	226.8
scalar RSUExampleScenario.node[279].veinsmobility 	stopTime 	1901
scalar RSUExampleScenario.node[279].veinsmobility 	minSpeed 	0.25677245622571
scalar RSUExampleScenario.node[279].veinsmobility 	maxSpeed 	18.999927223448
scalar RSUExampleScenario.node[279].veinsmobility 	totalDistance 	3409.3794276822
scalar RSUExampleScenario.node[279].veinsmobility 	totalCO2Emission 	707.41308518361
scalar RSUExampleScenario.node[280].veinsmobility 	startTime 	1680.1
scalar RSUExampleScenario.node[280].veinsmobility 	totalTime 	227.1
scalar RSUExampleScenario.node[280].veinsmobility 	stopTime 	1907.3
scalar RSUExampleScenario.node[280].veinsmobility 	minSpeed 	0.25508176166471
scalar RSUExampleScenario.node[280].veinsmobility 	maxSpeed 	18.999313927842
scalar RSUExampleScenario.node[280].veinsmobility 	totalDistance 	3409.1435665554
scalar RSUExampleScenario.node[280].veinsmobility 	totalCO2Emission 	706.86178574415
scalar RSUExampleScenario.node[281].veinsmobility 	startTime 	1686.1
scalar RSUExampleScenario.node[281].veinsmobility 	totalTime 	226.9
scalar RSUExampleScenario.node[281].veinsmobility 	stopTime 	1913.1
scalar RSUExampleScenario.node[281].veinsmobility 	minSpeed 	0.25717701945757
scalar RSUExampleScenario.node[281].veinsmobility 	maxSpeed 	18.999736027739
scalar RSUExampleScenario.node[281].veinsmobility 	totalDistance 	3409.9474765564
scalar RSUExampleScenario.node[281].veinsmobility 	totalCO2Emission 	706.9398784384
scalar RSUExampleScenario.node[282].veinsmobility 	startTime 	1692.1
scalar RSUExampleScenario.node[282].veinsmobility 	totalTime 	226.9
scalar RSUExampleScenario.node[282].veinsmobility 	stopTime 	1919.1
scalar RSUExampleScenario.node[282].veinsmobility 	minSpeed 	0.25725050897477
scalar RSUExampleScenario.node[282].veinsmobility 	maxSpeed 	18.999985453661
scalar RSUExampleScenario.node[282].veinsmobility 	totalDistance 	3409.4076378031
scalar RSUExampleScenario.node[282].veinsmobility 	totalCO2Emission 	706.55025891036
scalar RSUExampleScenario.node[283].veinsmobility 	startTime 	1698.1
scalar RSUExampleScenario.node[283].veinsmobility 	totalTime 	226.9
scalar RSUExampleScenario.node[283].veinsmobility 	stopTime 	1925.1
scalar RSUExampleScenario.node[283].veinsmobility 	minSpeed 	0.25409317514836
scalar RSUExampleScenario.node[283].veinsmobility 	maxSpeed 	18.999832228471
scalar RSUExampleScenario.node[283].veinsmobility 	totalDistance 	3409.3876600447
scalar RSUExampleScenario.node[283].veinsmobility 	totalCO2Emission 	708.05869872109
scalar RSUExampleScenario.node[284].veinsmobility 	startTime 	1704.1
scalar RSUExampleScenario.node[284].veinsmobility 	totalTime 	227
scalar RSUExampleScenario.node[284].veinsmobility 	stopTime 	1931.2
scalar RSUExampleScenario.node[284].veinsmobility 	minSpeed 	0.25930739539699
scalar RSUExampleScenario.node[284].veinsmobility 	maxSpeed 	18.999989208586
scalar RSUExampleScenario.node[284].veinsmobility 	totalDistance 	3409.3323740706
scalar RSUExampleScenario.node[284].veinsmobility 	totalCO2Emission 	710.29520256877
scalar RSUExampleScenario.node[285].veinsmobility 	startTime 	1710.1
scalar RSUExampleScenario.node[285].veinsmobility 	totalTime 	227
scalar RSUExampleScenario.node[285].veinsmobility 	stopTime 	1937.2
scalar RSUExampleScenario.node[285].veinsmobility 	minSpeed 	0.25346470049676
scalar RSUExampleScenario.node[285].veinsmobility 	maxSpeed 	18.999925099423
scalar RSUExampleScenario.node[285].veinsmobility 	totalDistance 	3410.0397141229
scalar RSUExampleScenario.node[285].veinsmobility 	totalCO2Emission 	709.55423933302
scalar RSUExampleScenario.node[286].veinsmobility 	startTime 	1716.1
scalar RSUExampleScenario.node[286].veinsmobility 	totalTime 	226.8
scalar RSUExampleScenario.node[286].veinsmobility 	stopTime 	1943
scalar RSUExampleScenario.node[286].veinsmobility 	minSpeed 	0.24814841193077
scalar RSUExampleScenario.node[286].veinsmobility 	maxSpeed 	18.999878105654
scalar RSUExampleScenario.node[286].veinsmobility 	totalDistance 	3409.3610227837
scalar RSUExampleScenario.node[286].veinsmobility 	totalCO2Emission 	706.27267647509
scalar RSUExampleScenario.node[287].veinsmobility 	startTime 	1722.1
scalar RSUExampleScenario.node[287].veinsmobility 	totalTime 	227
scalar RSUExampleScenario.node[287].veinsmobility 	stopTime 	1949.2
scalar RSUExampleScenario.node[287].veinsmobility 	minSpeed 	0.25709094613208
scalar RSUExampleScenario.node[287].veinsmobility 	maxSpeed 	18.999749585222
scalar RSUExampleScenario.node[287].veinsmobility 	totalDistance 	3409.138012142
scalar RSUExampleScenario.node[287].veinsmobility 	totalCO2Emission 	709.22503079437
scalar RSUExampleScenario.node[288].veinsmobility 	startTime 	1728.1
scalar RSUExampleScenario.node[288].veinsmobility 	totalTime 	226.9
scalar RSUExampleScenario.node[288].veinsmobility 	stopTime 	1955.1
scalar RSUExampleScenario.node[288].veinsmobility 	minSpeed 	0.25407923784666
scalar RSUExampleScenario.node[288].veinsmobility 	maxSpeed 	18.999959312687
scalar RSUExampleScenario.node[288].veinsmobility 	totalDistance 	3409.5227072613
scalar RSUExampleScenario.node[288].veinsmobility 	totalCO2Emission 	708.56401829462
scalar RSUExampleScenario.node[289].veinsmobility 	startTime 	1734.1
scalar RSUExampleScenario.node[289].veinsmobility 	totalTime 	226.7
scalar RSUExampleScenario.node[289].veinsmobility 	stopTime 	1960.9
scalar RSUExampleScenario.node[289].veinsmobility 	minSpeed 	0.25543400761299
scalar RSUExampleScenario.node[289].veinsmobility 	maxSpeed 	18.999734348773
scalar RSUExampleScenario.node[289].veinsmobility 	totalDistance 	3409.5051839736
scalar RSUExampleScenario.node[289].veinsmobility 	totalCO2Emission 	706.80056197917
scalar RSUExampleScenario.node[290].veinsmobility 	startTime 	1740.1
scalar RSUExampleScenario.node[290].veinsmobility 	totalTime 	226.9
scalar RSUExampleScenario.node[290].veinsmobility 	stopTime 	1967.1
scalar RSUExampleScenario.node[290].veinsmobility 	minSpeed 	0.25372878555791
scalar RSUExampleScenario.node[290].veinsmobility 	maxSpeed 	18.999997899341
scalar RSUExampleScenario.node[290].veinsmobility 	totalDistance 	3409.8366726145
scalar RSUExampleScenario.node[290].veinsmobility 	totalCO2Emission 	711.33599233459
scalar RSUExampleScenario.node[291].veinsmobility 	startTime 	1746.1
scalar RSUExampleScenario.node[291].veinsmobility 	totalTime 	226.9
scalar RSUExampleScenario.node[291].veinsmobility 	stopTime 	1973.1
scalar RSUExampleScenario.node[291].veinsmobility 	minSpeed 	0.25297120973212
scalar RSUExampleScenario.node[291].veinsmobility 	maxSpeed 	18.999831642241
scalar RSUExampleScenario.node[291].veinsmobility 	totalDistance 	3409.4880542783
scalar RSUExampleScenario.node[291].veinsmobility 	totalCO2Emission 	706.43995321719
scalar RSUExampleScenario.node[292].veinsmobility 	startTime 	1752.1
scalar RSUExampleScenario.node[292].veinsmobility 	totalTime 	227.1
scalar RSUExampleScenario.node[292].veinsmobility 	stopTime 	1979.3
scalar RSUExampleScenario.node[292].veinsmobility 	minSpeed 	0.25495609582798
scalar RSUExampleScenario.node[292].veinsmobility 	maxSpeed 	18.999782804032
scalar RSUExampleScenario.node[292].veinsmobility 	totalDistance 	3409.214218955
scalar RSUExampleScenario.node[292].veinsmobility 	totalCO2Emission 	708.60282189016
scalar RSUExampleScenario.node[293].veinsmobility 	startTime 	1758.1
scalar RSUExampleScenario.node[293].veinsmobility 	totalTime 	226.8
scalar RSUExampleScenario.node[293].veinsmobility 	stopTime 	1985
scalar RSUExampleScenario.node[293].veinsmobility 	minSpeed 	0.24937326325406
scalar RSUExampleScenario.node[293].veinsmobility 	maxSpeed 	18.999745449133
scalar RSUExampleScenario.node[293].veinsmobility 	totalDistance 	3409.3187674198
scalar RSUExampleScenario.node[293].veinsmobility 	totalCO2Emission 	708.06600181335
scalar RSUExampleScenario.node[294].veinsmobility 	startTime 	1764.1
scalar RSUExampleScenario.node[294].veinsmobility 	totalTime 	227.1
scalar RSUExampleScenario.node[294].veinsmobility 	stopTime 	1991.3
scalar RSUExampleScenario.node[294].veinsmobility 	minSpeed 	0.2495577524351
scalar RSUExampleScenario.node[294].veinsmobility 	maxSpeed 	18.999701239595
scalar RSUExampleScenario.node[294].veinsmobility 	totalDistance 	3409.3943413729
scalar RSUExampleScenario.node[294].veinsmobility 	totalCO2Emission 	707.52238473482
scalar RSUExampleScenario.node[295].veinsmobility 	startTime 	1770.1
scalar RSUExampleScenario.node[295].veinsmobility 	totalTime 	226.8
scalar RSUExampleScenario.node[295].veinsmobility 	stopTime 	1997
scalar RSUExampleScenario.node[295].veinsmobility 	minSpeed 	0.24896118146717
scalar RSUExampleScenario.node[295].veinsmobility 	maxSpeed 	18.999605047549
scalar RSUExampleScenario.node[295].veinsmobility 	totalDistance 	3409.1612191215
scalar RSUExampleScenario.node[295].veinsmobility 	totalCO2Emission 	706.50443269914
scalar RSUExampleScenario.node[296].veinsmobility 	startTime 	1776.1
scalar RSUExampleScenario.node[296].veinsmobility 	totalTime 	223.8
scalar RSUExampleScenario.node[296].veinsmobility 	stopTime 	2000
scalar RSUExampleScenario.node[296].veinsmobility 	minSpeed 	0.25929427608754
scalar RSUExampleScenario.node[296].veinsmobility 	maxSpeed 	18.999880164694
scalar RSUExampleScenario.node[296].veinsmobility 	totalDistance 	3388.8067555813
scalar RSUExampleScenario.node[296].veinsmobility 	totalCO2Emission 	698.6933573028
scalar RSUExampleScenario.node[297].veinsmobility 	startTime 	1782.1
scalar RSUExampleScenario.node[297].veinsmobility 	totalTime 	217.8
scalar RSUExampleScenario.node[297].veinsmobility 	stopTime 	2000
scalar RSUExampleScenario.node[297].veinsmobility 	minSpeed 	0.25812685787887
scalar RSUExampleScenario.node[297].veinsmobility 	maxSpeed 	18.999495233458
scalar RSUExampleScenario.node[297].veinsmobility 	totalDistance 	3325.7959959014
scalar RSUExampleScenario.node[297].veinsmobility 	totalCO2Emission 	684.78061402862
scalar RSUExampleScenario.node[298].veinsmobility 	startTime 	1788.1
scalar RSUExampleScenario.node[298].veinsmobility 	totalTime 	211.8
scalar RSUExampleScenario.node[298].veinsmobility 	stopTime 	2000
scalar RSUExampleScenario.node[298].veinsmobility 	minSpeed 	0.25194229745958
scalar RSUExampleScenario.node[298].veinsmobility 	maxSpeed 	18.999940740494
scalar RSUExampleScenario.node[298].veinsmobility 	totalDistance 	3243.9963288327
scalar RSUExampleScenario.node[298].veinsmobility 	totalCO2Emission 	669.74920641445
scalar RSUExampleScenario.node[299].veinsmobility 	startTime 	1794.1
scalar RSUExampleScenario.node[299].veinsmobility 	totalTime 	205.8
scalar RSUExampleScenario.node[299].veinsmobility 	stopTime 	2000
scalar RSUExampleScenario.node[299].veinsmobility 	minSpeed 	0.25754713445809
scalar RSUExampleScenario.node[299].veinsmobility 	maxSpeed 	18.999062658811
scalar RSUExampleScenario.node[299].veinsmobility 	totalDistance 	3155.6909348108
scalar RSUExampleScenario.node[299].veinsmobility 	totalCO2Emission 	656.87627259882
