version 2
run statisticRVV-221-20150326-07:58:26-7772
attr c 5
attr configname statisticRVV
attr datetime 20150326-07:58:26
attr experiment statisticRVV
attr inifile omnetpp.ini
attr iterationvars "$sc=\"erlangen-medium.launchd.xml\", $p=1/5, $c=5"
attr iterationvars2 "$sc=\"erlangen-medium.launchd.xml\", $p=1/5, $c=5, $repetition=1"
attr measurement "$sc=\"erlangen-medium.launchd.xml\", $p=1/5, $c=5"
attr network RSUExampleScenario
attr p 1/5
attr processid 7772
attr repetition 1
attr replication #1
attr resultdir results
attr runnumber 221
attr sc "\"erlangen-medium.launchd.xml\""
attr seedset 221

scalar . 	c 	5
scalar RSUExampleScenario.node[0].veinsmobility 	startTime 	0.1
scalar RSUExampleScenario.node[0].veinsmobility 	totalTime 	264.4
scalar RSUExampleScenario.node[0].veinsmobility 	stopTime 	264.6
scalar RSUExampleScenario.node[0].veinsmobility 	minSpeed 	0.25289458043221
scalar RSUExampleScenario.node[0].veinsmobility 	maxSpeed 	13.999997324219
scalar RSUExampleScenario.node[0].veinsmobility 	totalDistance 	3409.9311200092
scalar RSUExampleScenario.node[0].veinsmobility 	totalCO2Emission 	694.18130859067
scalar RSUExampleScenario.node[1].veinsmobility 	startTime 	3.1
scalar RSUExampleScenario.node[1].veinsmobility 	totalTime 	265.4
scalar RSUExampleScenario.node[1].veinsmobility 	stopTime 	268.6
scalar RSUExampleScenario.node[1].veinsmobility 	minSpeed 	0.25613130164985
scalar RSUExampleScenario.node[1].veinsmobility 	maxSpeed 	13.999976454172
scalar RSUExampleScenario.node[1].veinsmobility 	totalDistance 	3410.0218806272
scalar RSUExampleScenario.node[1].veinsmobility 	totalCO2Emission 	691.27906095283
scalar RSUExampleScenario.node[2].veinsmobility 	startTime 	6.1
scalar RSUExampleScenario.node[2].veinsmobility 	totalTime 	266
scalar RSUExampleScenario.node[2].veinsmobility 	stopTime 	272.2
scalar RSUExampleScenario.node[2].veinsmobility 	minSpeed 	0.24970416660234
scalar RSUExampleScenario.node[2].veinsmobility 	maxSpeed 	13.999693112611
scalar RSUExampleScenario.node[2].veinsmobility 	totalDistance 	3409.5166482973
scalar RSUExampleScenario.node[2].veinsmobility 	totalCO2Emission 	687.74269192472
scalar RSUExampleScenario.node[3].veinsmobility 	startTime 	9.1
scalar RSUExampleScenario.node[3].veinsmobility 	totalTime 	266.4
scalar RSUExampleScenario.node[3].veinsmobility 	stopTime 	275.6
scalar RSUExampleScenario.node[3].veinsmobility 	minSpeed 	0.2515659235213
scalar RSUExampleScenario.node[3].veinsmobility 	maxSpeed 	13.999895943666
scalar RSUExampleScenario.node[3].veinsmobility 	totalDistance 	3409.4144476924
scalar RSUExampleScenario.node[3].veinsmobility 	totalCO2Emission 	689.84619034604
scalar RSUExampleScenario.node[4].veinsmobility 	startTime 	12.1
scalar RSUExampleScenario.node[4].veinsmobility 	totalTime 	266.7
scalar RSUExampleScenario.node[4].veinsmobility 	stopTime 	278.9
scalar RSUExampleScenario.node[4].veinsmobility 	minSpeed 	0.25052680506022
scalar RSUExampleScenario.node[4].veinsmobility 	maxSpeed 	13.999659106138
scalar RSUExampleScenario.node[4].veinsmobility 	totalDistance 	3413.7944595509
scalar RSUExampleScenario.node[4].veinsmobility 	totalCO2Emission 	691.12942850295
scalar RSUExampleScenario.node[5].veinsmobility 	startTime 	15.1
scalar RSUExampleScenario.node[5].veinsmobility 	totalTime 	266.8
scalar RSUExampleScenario.node[5].veinsmobility 	stopTime 	282
scalar RSUExampleScenario.node[5].veinsmobility 	minSpeed 	0.25513475878234
scalar RSUExampleScenario.node[5].veinsmobility 	maxSpeed 	13.999969233351
scalar RSUExampleScenario.node[5].veinsmobility 	totalDistance 	3409.3191812216
scalar RSUExampleScenario.node[5].veinsmobility 	totalCO2Emission 	692.35655912606
scalar RSUExampleScenario.node[6].veinsmobility 	startTime 	18.1
scalar RSUExampleScenario.node[6].veinsmobility 	totalTime 	267
scalar RSUExampleScenario.node[6].veinsmobility 	stopTime 	285.2
scalar RSUExampleScenario.node[6].veinsmobility 	minSpeed 	0.24959434882761
scalar RSUExampleScenario.node[6].veinsmobility 	maxSpeed 	13.999920029202
scalar RSUExampleScenario.node[6].veinsmobility 	totalDistance 	3409.7147214379
scalar RSUExampleScenario.node[6].veinsmobility 	totalCO2Emission 	690.86565026749
scalar RSUExampleScenario.node[7].veinsmobility 	startTime 	21.1
scalar RSUExampleScenario.node[7].veinsmobility 	totalTime 	267
scalar RSUExampleScenario.node[7].veinsmobility 	stopTime 	288.2
scalar RSUExampleScenario.node[7].veinsmobility 	minSpeed 	0.2480022881364
scalar RSUExampleScenario.node[7].veinsmobility 	maxSpeed 	13.999969774573
scalar RSUExampleScenario.node[7].veinsmobility 	totalDistance 	3413.3768054745
scalar RSUExampleScenario.node[7].veinsmobility 	totalCO2Emission 	689.62756608588
scalar RSUExampleScenario.node[8].veinsmobility 	startTime 	24.1
scalar RSUExampleScenario.node[8].veinsmobility 	totalTime 	267
scalar RSUExampleScenario.node[8].veinsmobility 	stopTime 	291.2
scalar RSUExampleScenario.node[8].veinsmobility 	minSpeed 	0.24888103872328
scalar RSUExampleScenario.node[8].veinsmobility 	maxSpeed 	13.999979801569
scalar RSUExampleScenario.node[8].veinsmobility 	totalDistance 	3409.4740231371
scalar RSUExampleScenario.node[8].veinsmobility 	totalCO2Emission 	688.17962508874
scalar RSUExampleScenario.node[9].veinsmobility 	startTime 	27.1
scalar RSUExampleScenario.node[9].veinsmobility 	totalTime 	267.1
scalar RSUExampleScenario.node[9].veinsmobility 	stopTime 	294.3
scalar RSUExampleScenario.node[9].veinsmobility 	minSpeed 	0.25154871089989
scalar RSUExampleScenario.node[9].veinsmobility 	maxSpeed 	13.99996547322
scalar RSUExampleScenario.node[9].veinsmobility 	totalDistance 	3413.3446884186
scalar RSUExampleScenario.node[9].veinsmobility 	totalCO2Emission 	693.70322510085
scalar RSUExampleScenario.node[10].veinsmobility 	startTime 	30.1
scalar RSUExampleScenario.node[10].veinsmobility 	totalTime 	267.1
scalar RSUExampleScenario.node[10].veinsmobility 	stopTime 	297.3
scalar RSUExampleScenario.node[10].veinsmobility 	minSpeed 	0.2589980901347
scalar RSUExampleScenario.node[10].veinsmobility 	maxSpeed 	13.999960611183
scalar RSUExampleScenario.node[10].veinsmobility 	totalDistance 	3409.3265359778
scalar RSUExampleScenario.node[10].veinsmobility 	totalCO2Emission 	691.1610455488
scalar RSUExampleScenario.node[11].veinsmobility 	startTime 	33.1
scalar RSUExampleScenario.node[11].veinsmobility 	totalTime 	267.1
scalar RSUExampleScenario.node[11].veinsmobility 	stopTime 	300.3
scalar RSUExampleScenario.node[11].veinsmobility 	minSpeed 	0.25818128586095
scalar RSUExampleScenario.node[11].veinsmobility 	maxSpeed 	13.999942541288
scalar RSUExampleScenario.node[11].veinsmobility 	totalDistance 	3413.4791457911
scalar RSUExampleScenario.node[11].veinsmobility 	totalCO2Emission 	693.00552609385
scalar RSUExampleScenario.node[12].veinsmobility 	startTime 	36.1
scalar RSUExampleScenario.node[12].veinsmobility 	totalTime 	267.1
scalar RSUExampleScenario.node[12].veinsmobility 	stopTime 	303.3
scalar RSUExampleScenario.node[12].veinsmobility 	minSpeed 	0.25956664688815
scalar RSUExampleScenario.node[12].veinsmobility 	maxSpeed 	13.999966942489
scalar RSUExampleScenario.node[12].veinsmobility 	totalDistance 	3409.5104260742
scalar RSUExampleScenario.node[12].veinsmobility 	totalCO2Emission 	690.81192042792
scalar RSUExampleScenario.node[13].veinsmobility 	startTime 	39.1
scalar RSUExampleScenario.node[13].veinsmobility 	totalTime 	267.1
scalar RSUExampleScenario.node[13].veinsmobility 	stopTime 	306.3
scalar RSUExampleScenario.node[13].veinsmobility 	minSpeed 	0.25763885646127
scalar RSUExampleScenario.node[13].veinsmobility 	maxSpeed 	13.999986825709
scalar RSUExampleScenario.node[13].veinsmobility 	totalDistance 	3413.6665676946
scalar RSUExampleScenario.node[13].veinsmobility 	totalCO2Emission 	690.82323256973
scalar RSUExampleScenario.node[14].veinsmobility 	startTime 	42.1
scalar RSUExampleScenario.node[14].veinsmobility 	totalTime 	267.2
scalar RSUExampleScenario.node[14].veinsmobility 	stopTime 	309.4
scalar RSUExampleScenario.node[14].veinsmobility 	minSpeed 	0.25517081218841
scalar RSUExampleScenario.node[14].veinsmobility 	maxSpeed 	13.999953893234
scalar RSUExampleScenario.node[14].veinsmobility 	totalDistance 	3409.5917341798
scalar RSUExampleScenario.node[14].veinsmobility 	totalCO2Emission 	691.22564415234
scalar RSUExampleScenario.node[15].veinsmobility 	startTime 	45.1
scalar RSUExampleScenario.node[15].veinsmobility 	totalTime 	267.2
scalar RSUExampleScenario.node[15].veinsmobility 	stopTime 	312.4
scalar RSUExampleScenario.node[15].veinsmobility 	minSpeed 	0.25327014706284
scalar RSUExampleScenario.node[15].veinsmobility 	maxSpeed 	13.999979778959
scalar RSUExampleScenario.node[15].veinsmobility 	totalDistance 	3413.6232391045
scalar RSUExampleScenario.node[15].veinsmobility 	totalCO2Emission 	687.35922725515
scalar RSUExampleScenario.node[16].veinsmobility 	startTime 	48.1
scalar RSUExampleScenario.node[16].veinsmobility 	totalTime 	267.3
scalar RSUExampleScenario.node[16].veinsmobility 	stopTime 	315.5
scalar RSUExampleScenario.node[16].veinsmobility 	minSpeed 	0.2542091336099
scalar RSUExampleScenario.node[16].veinsmobility 	maxSpeed 	13.999901448928
scalar RSUExampleScenario.node[16].veinsmobility 	totalDistance 	3409.5100223036
scalar RSUExampleScenario.node[16].veinsmobility 	totalCO2Emission 	694.85736230529
scalar RSUExampleScenario.node[17].veinsmobility 	startTime 	51.1
scalar RSUExampleScenario.node[17].veinsmobility 	totalTime 	267.3
scalar RSUExampleScenario.node[17].veinsmobility 	stopTime 	318.5
scalar RSUExampleScenario.node[17].veinsmobility 	minSpeed 	0.25513289043959
scalar RSUExampleScenario.node[17].veinsmobility 	maxSpeed 	13.999673392414
scalar RSUExampleScenario.node[17].veinsmobility 	totalDistance 	3413.8106512281
scalar RSUExampleScenario.node[17].veinsmobility 	totalCO2Emission 	689.44479609111
scalar RSUExampleScenario.node[18].veinsmobility 	startTime 	54.1
scalar RSUExampleScenario.node[18].veinsmobility 	totalTime 	267.3
scalar RSUExampleScenario.node[18].veinsmobility 	stopTime 	321.5
scalar RSUExampleScenario.node[18].veinsmobility 	minSpeed 	0.24806811032537
scalar RSUExampleScenario.node[18].veinsmobility 	maxSpeed 	13.999976663506
scalar RSUExampleScenario.node[18].veinsmobility 	totalDistance 	3409.5048897468
scalar RSUExampleScenario.node[18].veinsmobility 	totalCO2Emission 	688.50665035662
scalar RSUExampleScenario.node[19].veinsmobility 	startTime 	57.1
scalar RSUExampleScenario.node[19].veinsmobility 	totalTime 	267.3
scalar RSUExampleScenario.node[19].veinsmobility 	stopTime 	324.5
scalar RSUExampleScenario.node[19].veinsmobility 	minSpeed 	0.24720910952822
scalar RSUExampleScenario.node[19].veinsmobility 	maxSpeed 	13.999976361431
scalar RSUExampleScenario.node[19].veinsmobility 	totalDistance 	3413.5479116581
scalar RSUExampleScenario.node[19].veinsmobility 	totalCO2Emission 	689.97028036056
scalar RSUExampleScenario.node[20].veinsmobility 	startTime 	60.1
scalar RSUExampleScenario.node[20].veinsmobility 	totalTime 	267.4
scalar RSUExampleScenario.node[20].veinsmobility 	stopTime 	327.6
scalar RSUExampleScenario.node[20].veinsmobility 	minSpeed 	0.24912471043877
scalar RSUExampleScenario.node[20].veinsmobility 	maxSpeed 	13.999995518583
scalar RSUExampleScenario.node[20].veinsmobility 	totalDistance 	3409.9933475562
scalar RSUExampleScenario.node[20].veinsmobility 	totalCO2Emission 	690.13160698961
scalar RSUExampleScenario.node[21].veinsmobility 	startTime 	63.1
scalar RSUExampleScenario.node[21].veinsmobility 	totalTime 	267.5
scalar RSUExampleScenario.node[21].veinsmobility 	stopTime 	330.7
scalar RSUExampleScenario.node[21].veinsmobility 	minSpeed 	0.25002533959597
scalar RSUExampleScenario.node[21].veinsmobility 	maxSpeed 	13.999995063927
scalar RSUExampleScenario.node[21].veinsmobility 	totalDistance 	3413.9374612522
scalar RSUExampleScenario.node[21].veinsmobility 	totalCO2Emission 	690.72123103106
scalar RSUExampleScenario.node[22].veinsmobility 	startTime 	66.1
scalar RSUExampleScenario.node[22].veinsmobility 	totalTime 	267.6
scalar RSUExampleScenario.node[22].veinsmobility 	stopTime 	333.8
scalar RSUExampleScenario.node[22].veinsmobility 	minSpeed 	0.25210657230997
scalar RSUExampleScenario.node[22].veinsmobility 	maxSpeed 	13.999930560191
scalar RSUExampleScenario.node[22].veinsmobility 	totalDistance 	3409.7491988129
scalar RSUExampleScenario.node[22].veinsmobility 	totalCO2Emission 	690.85271559603
scalar RSUExampleScenario.node[23].veinsmobility 	startTime 	69.1
scalar RSUExampleScenario.node[23].veinsmobility 	totalTime 	267.7
scalar RSUExampleScenario.node[23].veinsmobility 	stopTime 	336.9
scalar RSUExampleScenario.node[23].veinsmobility 	minSpeed 	0.25145701875607
scalar RSUExampleScenario.node[23].veinsmobility 	maxSpeed 	13.999995090473
scalar RSUExampleScenario.node[23].veinsmobility 	totalDistance 	3409.4565942325
scalar RSUExampleScenario.node[23].veinsmobility 	totalCO2Emission 	694.69400313596
scalar RSUExampleScenario.node[24].veinsmobility 	startTime 	72.1
scalar RSUExampleScenario.node[24].veinsmobility 	totalTime 	267.8
scalar RSUExampleScenario.node[24].veinsmobility 	stopTime 	340
scalar RSUExampleScenario.node[24].veinsmobility 	minSpeed 	0.25880111303134
scalar RSUExampleScenario.node[24].veinsmobility 	maxSpeed 	13.999984700684
scalar RSUExampleScenario.node[24].veinsmobility 	totalDistance 	3413.6736392565
scalar RSUExampleScenario.node[24].veinsmobility 	totalCO2Emission 	690.56373471751
scalar RSUExampleScenario.node[25].veinsmobility 	startTime 	75.1
scalar RSUExampleScenario.node[25].veinsmobility 	totalTime 	267.9
scalar RSUExampleScenario.node[25].veinsmobility 	stopTime 	343.1
scalar RSUExampleScenario.node[25].veinsmobility 	minSpeed 	0.25456636348739
scalar RSUExampleScenario.node[25].veinsmobility 	maxSpeed 	13.999871382832
scalar RSUExampleScenario.node[25].veinsmobility 	totalDistance 	3409.7106713704
scalar RSUExampleScenario.node[25].veinsmobility 	totalCO2Emission 	690.88062011042
scalar RSUExampleScenario.node[26].veinsmobility 	startTime 	78.1
scalar RSUExampleScenario.node[26].veinsmobility 	totalTime 	268
scalar RSUExampleScenario.node[26].veinsmobility 	stopTime 	346.2
scalar RSUExampleScenario.node[26].veinsmobility 	minSpeed 	0.25468668278446
scalar RSUExampleScenario.node[26].veinsmobility 	maxSpeed 	13.999958829489
scalar RSUExampleScenario.node[26].veinsmobility 	totalDistance 	3413.4396311361
scalar RSUExampleScenario.node[26].veinsmobility 	totalCO2Emission 	694.63225750259
scalar RSUExampleScenario.node[27].veinsmobility 	startTime 	81.1
scalar RSUExampleScenario.node[27].veinsmobility 	totalTime 	268.2
scalar RSUExampleScenario.node[27].veinsmobility 	stopTime 	349.4
scalar RSUExampleScenario.node[27].veinsmobility 	minSpeed 	0.24775678714807
scalar RSUExampleScenario.node[27].veinsmobility 	maxSpeed 	13.99991353221
scalar RSUExampleScenario.node[27].veinsmobility 	totalDistance 	3409.598542702
scalar RSUExampleScenario.node[27].veinsmobility 	totalCO2Emission 	695.98286871846
scalar RSUExampleScenario.node[28].veinsmobility 	startTime 	84.1
scalar RSUExampleScenario.node[28].veinsmobility 	totalTime 	268.4
scalar RSUExampleScenario.node[28].veinsmobility 	stopTime 	352.6
scalar RSUExampleScenario.node[28].veinsmobility 	minSpeed 	0.25545417765249
scalar RSUExampleScenario.node[28].veinsmobility 	maxSpeed 	13.999632529698
scalar RSUExampleScenario.node[28].veinsmobility 	totalDistance 	3413.6073439386
scalar RSUExampleScenario.node[28].veinsmobility 	totalCO2Emission 	688.17171986059
scalar RSUExampleScenario.node[29].veinsmobility 	startTime 	87.1
scalar RSUExampleScenario.node[29].veinsmobility 	totalTime 	268.7
scalar RSUExampleScenario.node[29].veinsmobility 	stopTime 	355.9
scalar RSUExampleScenario.node[29].veinsmobility 	minSpeed 	0.25556153529091
scalar RSUExampleScenario.node[29].veinsmobility 	maxSpeed 	13.999932958838
scalar RSUExampleScenario.node[29].veinsmobility 	totalDistance 	3409.9634957565
scalar RSUExampleScenario.node[29].veinsmobility 	totalCO2Emission 	692.66560417501
scalar RSUExampleScenario.node[30].veinsmobility 	startTime 	90.1
scalar RSUExampleScenario.node[30].veinsmobility 	totalTime 	269
scalar RSUExampleScenario.node[30].veinsmobility 	stopTime 	359.2
scalar RSUExampleScenario.node[30].veinsmobility 	minSpeed 	0.25466821817635
scalar RSUExampleScenario.node[30].veinsmobility 	maxSpeed 	13.999953516005
scalar RSUExampleScenario.node[30].veinsmobility 	totalDistance 	3413.8934260874
scalar RSUExampleScenario.node[30].veinsmobility 	totalCO2Emission 	691.80481508507
scalar RSUExampleScenario.node[31].veinsmobility 	startTime 	93.1
scalar RSUExampleScenario.node[31].veinsmobility 	totalTime 	269.4
scalar RSUExampleScenario.node[31].veinsmobility 	stopTime 	362.6
scalar RSUExampleScenario.node[31].veinsmobility 	minSpeed 	0.2535296932885
scalar RSUExampleScenario.node[31].veinsmobility 	maxSpeed 	13.999987734566
scalar RSUExampleScenario.node[31].veinsmobility 	totalDistance 	3409.7456692746
scalar RSUExampleScenario.node[31].veinsmobility 	totalCO2Emission 	690.37311570418
scalar RSUExampleScenario.node[32].veinsmobility 	startTime 	96.1
scalar RSUExampleScenario.node[32].veinsmobility 	totalTime 	269.8
scalar RSUExampleScenario.node[32].veinsmobility 	stopTime 	366
scalar RSUExampleScenario.node[32].veinsmobility 	minSpeed 	0.25302359079942
scalar RSUExampleScenario.node[32].veinsmobility 	maxSpeed 	13.99994221179
scalar RSUExampleScenario.node[32].veinsmobility 	totalDistance 	3413.9063924075
scalar RSUExampleScenario.node[32].veinsmobility 	totalCO2Emission 	693.41210086364
scalar RSUExampleScenario.node[33].veinsmobility 	startTime 	99.1
scalar RSUExampleScenario.node[33].veinsmobility 	totalTime 	270.3
scalar RSUExampleScenario.node[33].veinsmobility 	stopTime 	369.5
scalar RSUExampleScenario.node[33].veinsmobility 	minSpeed 	0.25696726492466
scalar RSUExampleScenario.node[33].veinsmobility 	maxSpeed 	13.999926302545
scalar RSUExampleScenario.node[33].veinsmobility 	totalDistance 	3410.047213393
scalar RSUExampleScenario.node[33].veinsmobility 	totalCO2Emission 	697.44001273847
scalar RSUExampleScenario.node[34].veinsmobility 	startTime 	102.1
scalar RSUExampleScenario.node[34].veinsmobility 	totalTime 	270.9
scalar RSUExampleScenario.node[34].veinsmobility 	stopTime 	373.1
scalar RSUExampleScenario.node[34].veinsmobility 	minSpeed 	0.25547691612714
scalar RSUExampleScenario.node[34].veinsmobility 	maxSpeed 	13.999993384781
scalar RSUExampleScenario.node[34].veinsmobility 	totalDistance 	3414.0183508097
scalar RSUExampleScenario.node[34].veinsmobility 	totalCO2Emission 	694.27067701529
scalar RSUExampleScenario.node[35].veinsmobility 	startTime 	105.1
scalar RSUExampleScenario.node[35].veinsmobility 	totalTime 	271.6
scalar RSUExampleScenario.node[35].veinsmobility 	stopTime 	376.8
scalar RSUExampleScenario.node[35].veinsmobility 	minSpeed 	0.2488014932333
scalar RSUExampleScenario.node[35].veinsmobility 	maxSpeed 	13.999996901678
scalar RSUExampleScenario.node[35].veinsmobility 	totalDistance 	3409.9000649724
scalar RSUExampleScenario.node[35].veinsmobility 	totalCO2Emission 	695.80632107382
scalar RSUExampleScenario.node[36].veinsmobility 	startTime 	108.1
scalar RSUExampleScenario.node[36].veinsmobility 	totalTime 	272.3
scalar RSUExampleScenario.node[36].veinsmobility 	stopTime 	380.5
scalar RSUExampleScenario.node[36].veinsmobility 	minSpeed 	0.24735146399308
scalar RSUExampleScenario.node[36].veinsmobility 	maxSpeed 	13.999852564773
scalar RSUExampleScenario.node[36].veinsmobility 	totalDistance 	3413.8061035401
scalar RSUExampleScenario.node[36].veinsmobility 	totalCO2Emission 	690.87870534735
scalar RSUExampleScenario.node[37].veinsmobility 	startTime 	111.1
scalar RSUExampleScenario.node[37].veinsmobility 	totalTime 	273
scalar RSUExampleScenario.node[37].veinsmobility 	stopTime 	384.2
scalar RSUExampleScenario.node[37].veinsmobility 	minSpeed 	0.24971748267789
scalar RSUExampleScenario.node[37].veinsmobility 	maxSpeed 	13.99998794744
scalar RSUExampleScenario.node[37].veinsmobility 	totalDistance 	3409.5013163286
scalar RSUExampleScenario.node[37].veinsmobility 	totalCO2Emission 	698.66060563751
scalar RSUExampleScenario.node[38].veinsmobility 	startTime 	114.1
scalar RSUExampleScenario.node[38].veinsmobility 	totalTime 	273.6
scalar RSUExampleScenario.node[38].veinsmobility 	stopTime 	387.8
scalar RSUExampleScenario.node[38].veinsmobility 	minSpeed 	0.25576181487949
scalar RSUExampleScenario.node[38].veinsmobility 	maxSpeed 	13.999991962246
scalar RSUExampleScenario.node[38].veinsmobility 	totalDistance 	3413.6957150128
scalar RSUExampleScenario.node[38].veinsmobility 	totalCO2Emission 	696.93120721139
scalar RSUExampleScenario.node[39].veinsmobility 	startTime 	117.1
scalar RSUExampleScenario.node[39].veinsmobility 	totalTime 	274.3
scalar RSUExampleScenario.node[39].veinsmobility 	stopTime 	391.5
scalar RSUExampleScenario.node[39].veinsmobility 	minSpeed 	0.2596057677092
scalar RSUExampleScenario.node[39].veinsmobility 	maxSpeed 	13.999996342659
scalar RSUExampleScenario.node[39].veinsmobility 	totalDistance 	3409.4212151609
scalar RSUExampleScenario.node[39].veinsmobility 	totalCO2Emission 	695.15895474548
scalar RSUExampleScenario.node[40].veinsmobility 	startTime 	120.1
scalar RSUExampleScenario.node[40].veinsmobility 	totalTime 	274.9
scalar RSUExampleScenario.node[40].veinsmobility 	stopTime 	395.1
scalar RSUExampleScenario.node[40].veinsmobility 	minSpeed 	0.2485336051241
scalar RSUExampleScenario.node[40].veinsmobility 	maxSpeed 	13.999986058082
scalar RSUExampleScenario.node[40].veinsmobility 	totalDistance 	3413.6855731134
scalar RSUExampleScenario.node[40].veinsmobility 	totalCO2Emission 	694.94397230804
scalar RSUExampleScenario.node[41].veinsmobility 	startTime 	123.1
scalar RSUExampleScenario.node[41].veinsmobility 	totalTime 	275.5
scalar RSUExampleScenario.node[41].veinsmobility 	stopTime 	398.7
scalar RSUExampleScenario.node[41].veinsmobility 	minSpeed 	0.253208868752
scalar RSUExampleScenario.node[41].veinsmobility 	maxSpeed 	13.999858174005
scalar RSUExampleScenario.node[41].veinsmobility 	totalDistance 	3409.4859846578
scalar RSUExampleScenario.node[41].veinsmobility 	totalCO2Emission 	694.06023841235
scalar RSUExampleScenario.node[42].veinsmobility 	startTime 	126.1
scalar RSUExampleScenario.node[42].veinsmobility 	totalTime 	276.3
scalar RSUExampleScenario.node[42].veinsmobility 	stopTime 	402.5
scalar RSUExampleScenario.node[42].veinsmobility 	minSpeed 	0.24971991505544
scalar RSUExampleScenario.node[42].veinsmobility 	maxSpeed 	13.999856292638
scalar RSUExampleScenario.node[42].veinsmobility 	totalDistance 	3414.2001919798
scalar RSUExampleScenario.node[42].veinsmobility 	totalCO2Emission 	695.06261950553
scalar RSUExampleScenario.node[43].veinsmobility 	startTime 	129.1
scalar RSUExampleScenario.node[43].veinsmobility 	totalTime 	277.1
scalar RSUExampleScenario.node[43].veinsmobility 	stopTime 	406.3
scalar RSUExampleScenario.node[43].veinsmobility 	minSpeed 	0.2483441996295
scalar RSUExampleScenario.node[43].veinsmobility 	maxSpeed 	13.999635388176
scalar RSUExampleScenario.node[43].veinsmobility 	totalDistance 	3409.8472260294
scalar RSUExampleScenario.node[43].veinsmobility 	totalCO2Emission 	699.05992523232
scalar RSUExampleScenario.node[44].veinsmobility 	startTime 	132.1
scalar RSUExampleScenario.node[44].veinsmobility 	totalTime 	277.8
scalar RSUExampleScenario.node[44].veinsmobility 	stopTime 	410
scalar RSUExampleScenario.node[44].veinsmobility 	minSpeed 	0.24718958898517
scalar RSUExampleScenario.node[44].veinsmobility 	maxSpeed 	13.99976893621
scalar RSUExampleScenario.node[44].veinsmobility 	totalDistance 	3414.047484393
scalar RSUExampleScenario.node[44].veinsmobility 	totalCO2Emission 	700.04000043238
scalar RSUExampleScenario.node[45].veinsmobility 	startTime 	135.1
scalar RSUExampleScenario.node[45].veinsmobility 	totalTime 	278.4
scalar RSUExampleScenario.node[45].veinsmobility 	stopTime 	413.6
scalar RSUExampleScenario.node[45].veinsmobility 	minSpeed 	0.25652556720213
scalar RSUExampleScenario.node[45].veinsmobility 	maxSpeed 	13.999928600611
scalar RSUExampleScenario.node[45].veinsmobility 	totalDistance 	3409.773914439
scalar RSUExampleScenario.node[45].veinsmobility 	totalCO2Emission 	703.45681854189
scalar RSUExampleScenario.node[46].veinsmobility 	startTime 	138.1
scalar RSUExampleScenario.node[46].veinsmobility 	totalTime 	279.1
scalar RSUExampleScenario.node[46].veinsmobility 	stopTime 	417.3
scalar RSUExampleScenario.node[46].veinsmobility 	minSpeed 	0.25651032049838
scalar RSUExampleScenario.node[46].veinsmobility 	maxSpeed 	13.999989297998
scalar RSUExampleScenario.node[46].veinsmobility 	totalDistance 	3414.1205821903
scalar RSUExampleScenario.node[46].veinsmobility 	totalCO2Emission 	701.63312266661
scalar RSUExampleScenario.node[47].veinsmobility 	startTime 	141.1
scalar RSUExampleScenario.node[47].veinsmobility 	totalTime 	279.8
scalar RSUExampleScenario.node[47].veinsmobility 	stopTime 	421
scalar RSUExampleScenario.node[47].veinsmobility 	minSpeed 	0.24838445191318
scalar RSUExampleScenario.node[47].veinsmobility 	maxSpeed 	13.999870520164
scalar RSUExampleScenario.node[47].veinsmobility 	totalDistance 	3409.5758154115
scalar RSUExampleScenario.node[47].veinsmobility 	totalCO2Emission 	698.79882193604
scalar RSUExampleScenario.node[48].veinsmobility 	startTime 	144.1
scalar RSUExampleScenario.node[48].veinsmobility 	totalTime 	280.5
scalar RSUExampleScenario.node[48].veinsmobility 	stopTime 	424.7
scalar RSUExampleScenario.node[48].veinsmobility 	minSpeed 	0.25308019492845
scalar RSUExampleScenario.node[48].veinsmobility 	maxSpeed 	13.999956442041
scalar RSUExampleScenario.node[48].veinsmobility 	totalDistance 	3413.6458563438
scalar RSUExampleScenario.node[48].veinsmobility 	totalCO2Emission 	704.96610008945
scalar RSUExampleScenario.node[49].veinsmobility 	startTime 	147.1
scalar RSUExampleScenario.node[49].veinsmobility 	totalTime 	281.2
scalar RSUExampleScenario.node[49].veinsmobility 	stopTime 	428.4
scalar RSUExampleScenario.node[49].veinsmobility 	minSpeed 	0.25564662215556
scalar RSUExampleScenario.node[49].veinsmobility 	maxSpeed 	13.999929716743
scalar RSUExampleScenario.node[49].veinsmobility 	totalDistance 	3409.749061755
scalar RSUExampleScenario.node[49].veinsmobility 	totalCO2Emission 	702.02352839025
scalar RSUExampleScenario.node[50].veinsmobility 	startTime 	150.1
scalar RSUExampleScenario.node[50].veinsmobility 	totalTime 	281.9
scalar RSUExampleScenario.node[50].veinsmobility 	stopTime 	432.1
scalar RSUExampleScenario.node[50].veinsmobility 	minSpeed 	0.25202320481208
scalar RSUExampleScenario.node[50].veinsmobility 	maxSpeed 	13.999946421825
scalar RSUExampleScenario.node[50].veinsmobility 	totalDistance 	3413.9296211409
scalar RSUExampleScenario.node[50].veinsmobility 	totalCO2Emission 	705.0598890335
scalar RSUExampleScenario.node[51].veinsmobility 	startTime 	153.1
scalar RSUExampleScenario.node[51].veinsmobility 	totalTime 	282.6
scalar RSUExampleScenario.node[51].veinsmobility 	stopTime 	435.8
scalar RSUExampleScenario.node[51].veinsmobility 	minSpeed 	0.2492269903596
scalar RSUExampleScenario.node[51].veinsmobility 	maxSpeed 	13.999987419052
scalar RSUExampleScenario.node[51].veinsmobility 	totalDistance 	3410.1980991789
scalar RSUExampleScenario.node[51].veinsmobility 	totalCO2Emission 	705.54326609466
scalar RSUExampleScenario.node[52].veinsmobility 	startTime 	156.1
scalar RSUExampleScenario.node[52].veinsmobility 	totalTime 	283.3
scalar RSUExampleScenario.node[52].veinsmobility 	stopTime 	439.5
scalar RSUExampleScenario.node[52].veinsmobility 	minSpeed 	0.25470534612611
scalar RSUExampleScenario.node[52].veinsmobility 	maxSpeed 	13.999966997395
scalar RSUExampleScenario.node[52].veinsmobility 	totalDistance 	3413.9211147557
scalar RSUExampleScenario.node[52].veinsmobility 	totalCO2Emission 	704.7424136341
scalar RSUExampleScenario.node[53].veinsmobility 	startTime 	159.1
scalar RSUExampleScenario.node[53].veinsmobility 	totalTime 	284
scalar RSUExampleScenario.node[53].veinsmobility 	stopTime 	443.2
scalar RSUExampleScenario.node[53].veinsmobility 	minSpeed 	0.25923359179194
scalar RSUExampleScenario.node[53].veinsmobility 	maxSpeed 	13.999997876731
scalar RSUExampleScenario.node[53].veinsmobility 	totalDistance 	3410.1130168254
scalar RSUExampleScenario.node[53].veinsmobility 	totalCO2Emission 	708.06783387363
scalar RSUExampleScenario.node[54].veinsmobility 	startTime 	162.1
scalar RSUExampleScenario.node[54].veinsmobility 	totalTime 	284.6
scalar RSUExampleScenario.node[54].veinsmobility 	stopTime 	446.8
scalar RSUExampleScenario.node[54].veinsmobility 	minSpeed 	0.25756449119141
scalar RSUExampleScenario.node[54].veinsmobility 	maxSpeed 	13.999797103778
scalar RSUExampleScenario.node[54].veinsmobility 	totalDistance 	3413.8553639798
scalar RSUExampleScenario.node[54].veinsmobility 	totalCO2Emission 	704.6391993986
scalar RSUExampleScenario.node[55].veinsmobility 	startTime 	165.1
scalar RSUExampleScenario.node[55].veinsmobility 	totalTime 	285.3
scalar RSUExampleScenario.node[55].veinsmobility 	stopTime 	450.5
scalar RSUExampleScenario.node[55].veinsmobility 	minSpeed 	0.24913588091987
scalar RSUExampleScenario.node[55].veinsmobility 	maxSpeed 	13.999975894184
scalar RSUExampleScenario.node[55].veinsmobility 	totalDistance 	3409.966550805
scalar RSUExampleScenario.node[55].veinsmobility 	totalCO2Emission 	707.67794469485
scalar RSUExampleScenario.node[56].veinsmobility 	startTime 	168.1
scalar RSUExampleScenario.node[56].veinsmobility 	totalTime 	286
scalar RSUExampleScenario.node[56].veinsmobility 	stopTime 	454.2
scalar RSUExampleScenario.node[56].veinsmobility 	minSpeed 	0.24961454425287
scalar RSUExampleScenario.node[56].veinsmobility 	maxSpeed 	13.999955467412
scalar RSUExampleScenario.node[56].veinsmobility 	totalDistance 	3413.963993131
scalar RSUExampleScenario.node[56].veinsmobility 	totalCO2Emission 	709.4681996791
scalar RSUExampleScenario.node[57].veinsmobility 	startTime 	171.1
scalar RSUExampleScenario.node[57].veinsmobility 	totalTime 	286.8
scalar RSUExampleScenario.node[57].veinsmobility 	stopTime 	458
scalar RSUExampleScenario.node[57].veinsmobility 	minSpeed 	0.25411572404252
scalar RSUExampleScenario.node[57].veinsmobility 	maxSpeed 	13.999993590179
scalar RSUExampleScenario.node[57].veinsmobility 	totalDistance 	3410.1393416742
scalar RSUExampleScenario.node[57].veinsmobility 	totalCO2Emission 	710.79223139274
scalar RSUExampleScenario.node[58].veinsmobility 	startTime 	174.1
scalar RSUExampleScenario.node[58].veinsmobility 	totalTime 	287.5
scalar RSUExampleScenario.node[58].veinsmobility 	stopTime 	461.7
scalar RSUExampleScenario.node[58].veinsmobility 	minSpeed 	0.24954656822747
scalar RSUExampleScenario.node[58].veinsmobility 	maxSpeed 	13.999809629456
scalar RSUExampleScenario.node[58].veinsmobility 	totalDistance 	3413.5816794444
scalar RSUExampleScenario.node[58].veinsmobility 	totalCO2Emission 	708.91258596274
scalar RSUExampleScenario.node[59].veinsmobility 	startTime 	177.1
scalar RSUExampleScenario.node[59].veinsmobility 	totalTime 	288.1
scalar RSUExampleScenario.node[59].veinsmobility 	stopTime 	465.3
scalar RSUExampleScenario.node[59].veinsmobility 	minSpeed 	0.25974630978471
scalar RSUExampleScenario.node[59].veinsmobility 	maxSpeed 	13.999972312665
scalar RSUExampleScenario.node[59].veinsmobility 	totalDistance 	3409.6819601402
scalar RSUExampleScenario.node[59].veinsmobility 	totalCO2Emission 	710.01639771025
scalar RSUExampleScenario.node[60].veinsmobility 	startTime 	180.1
scalar RSUExampleScenario.node[60].veinsmobility 	totalTime 	288.8
scalar RSUExampleScenario.node[60].veinsmobility 	stopTime 	469
scalar RSUExampleScenario.node[60].veinsmobility 	minSpeed 	0.25440531612118
scalar RSUExampleScenario.node[60].veinsmobility 	maxSpeed 	13.999967430711
scalar RSUExampleScenario.node[60].veinsmobility 	totalDistance 	3414.2168995449
scalar RSUExampleScenario.node[60].veinsmobility 	totalCO2Emission 	710.84746233205
scalar RSUExampleScenario.node[61].veinsmobility 	startTime 	183.1
scalar RSUExampleScenario.node[61].veinsmobility 	totalTime 	289.4
scalar RSUExampleScenario.node[61].veinsmobility 	stopTime 	472.6
scalar RSUExampleScenario.node[61].veinsmobility 	minSpeed 	0.25515035209083
scalar RSUExampleScenario.node[61].veinsmobility 	maxSpeed 	13.999981020067
scalar RSUExampleScenario.node[61].veinsmobility 	totalDistance 	3409.7236321561
scalar RSUExampleScenario.node[61].veinsmobility 	totalCO2Emission 	708.81008873476
scalar RSUExampleScenario.node[62].veinsmobility 	startTime 	186.1
scalar RSUExampleScenario.node[62].veinsmobility 	totalTime 	290
scalar RSUExampleScenario.node[62].veinsmobility 	stopTime 	476.2
scalar RSUExampleScenario.node[62].veinsmobility 	minSpeed 	0.24712149560475
scalar RSUExampleScenario.node[62].veinsmobility 	maxSpeed 	13.999770141602
scalar RSUExampleScenario.node[62].veinsmobility 	totalDistance 	3413.6796576961
scalar RSUExampleScenario.node[62].veinsmobility 	totalCO2Emission 	709.51863980248
scalar RSUExampleScenario.node[63].veinsmobility 	startTime 	189.1
scalar RSUExampleScenario.node[63].veinsmobility 	totalTime 	290.6
scalar RSUExampleScenario.node[63].veinsmobility 	stopTime 	479.8
scalar RSUExampleScenario.node[63].veinsmobility 	minSpeed 	0.24707838932262
scalar RSUExampleScenario.node[63].veinsmobility 	maxSpeed 	13.999942538473
scalar RSUExampleScenario.node[63].veinsmobility 	totalDistance 	3409.4822050546
scalar RSUExampleScenario.node[63].veinsmobility 	totalCO2Emission 	715.03601227598
scalar RSUExampleScenario.node[64].veinsmobility 	startTime 	192.1
scalar RSUExampleScenario.node[64].veinsmobility 	totalTime 	291.2
scalar RSUExampleScenario.node[64].veinsmobility 	stopTime 	483.4
scalar RSUExampleScenario.node[64].veinsmobility 	minSpeed 	0.2568127272604
scalar RSUExampleScenario.node[64].veinsmobility 	maxSpeed 	13.999988746908
scalar RSUExampleScenario.node[64].veinsmobility 	totalDistance 	3413.7896923897
scalar RSUExampleScenario.node[64].veinsmobility 	totalCO2Emission 	716.63286421885
scalar RSUExampleScenario.node[65].veinsmobility 	startTime 	195.1
scalar RSUExampleScenario.node[65].veinsmobility 	totalTime 	291.8
scalar RSUExampleScenario.node[65].veinsmobility 	stopTime 	487
scalar RSUExampleScenario.node[65].veinsmobility 	minSpeed 	0.24717568217544
scalar RSUExampleScenario.node[65].veinsmobility 	maxSpeed 	13.999838617891
scalar RSUExampleScenario.node[65].veinsmobility 	totalDistance 	3409.8159967138
scalar RSUExampleScenario.node[65].veinsmobility 	totalCO2Emission 	714.17510615704
scalar RSUExampleScenario.node[66].veinsmobility 	startTime 	198.1
scalar RSUExampleScenario.node[66].veinsmobility 	totalTime 	292.4
scalar RSUExampleScenario.node[66].veinsmobility 	stopTime 	490.6
scalar RSUExampleScenario.node[66].veinsmobility 	minSpeed 	0.24919521087757
scalar RSUExampleScenario.node[66].veinsmobility 	maxSpeed 	13.999976740507
scalar RSUExampleScenario.node[66].veinsmobility 	totalDistance 	3413.7634751558
scalar RSUExampleScenario.node[66].veinsmobility 	totalCO2Emission 	714.81232444087
scalar RSUExampleScenario.node[67].veinsmobility 	startTime 	201.1
scalar RSUExampleScenario.node[67].veinsmobility 	totalTime 	293.1
scalar RSUExampleScenario.node[67].veinsmobility 	stopTime 	494.3
scalar RSUExampleScenario.node[67].veinsmobility 	minSpeed 	0.24744938407419
scalar RSUExampleScenario.node[67].veinsmobility 	maxSpeed 	13.999746287011
scalar RSUExampleScenario.node[67].veinsmobility 	totalDistance 	3409.6451810561
scalar RSUExampleScenario.node[67].veinsmobility 	totalCO2Emission 	715.78320695628
scalar RSUExampleScenario.node[68].veinsmobility 	startTime 	204.1
scalar RSUExampleScenario.node[68].veinsmobility 	totalTime 	293.8
scalar RSUExampleScenario.node[68].veinsmobility 	stopTime 	498
scalar RSUExampleScenario.node[68].veinsmobility 	minSpeed 	0.25116194072342
scalar RSUExampleScenario.node[68].veinsmobility 	maxSpeed 	13.999928766268
scalar RSUExampleScenario.node[68].veinsmobility 	totalDistance 	3413.8675809734
scalar RSUExampleScenario.node[68].veinsmobility 	totalCO2Emission 	712.90117509422
scalar RSUExampleScenario.node[69].veinsmobility 	startTime 	207.1
scalar RSUExampleScenario.node[69].veinsmobility 	totalTime 	294.4
scalar RSUExampleScenario.node[69].veinsmobility 	stopTime 	501.6
scalar RSUExampleScenario.node[69].veinsmobility 	minSpeed 	0.25012442087801
scalar RSUExampleScenario.node[69].veinsmobility 	maxSpeed 	13.999971202163
scalar RSUExampleScenario.node[69].veinsmobility 	totalDistance 	3409.5090198352
scalar RSUExampleScenario.node[69].veinsmobility 	totalCO2Emission 	717.39415561888
scalar RSUExampleScenario.node[70].veinsmobility 	startTime 	210.1
scalar RSUExampleScenario.node[70].veinsmobility 	totalTime 	295
scalar RSUExampleScenario.node[70].veinsmobility 	stopTime 	505.2
scalar RSUExampleScenario.node[70].veinsmobility 	minSpeed 	0.25022718664841
scalar RSUExampleScenario.node[70].veinsmobility 	maxSpeed 	13.999848427079
scalar RSUExampleScenario.node[70].veinsmobility 	totalDistance 	3413.871117556
scalar RSUExampleScenario.node[70].veinsmobility 	totalCO2Emission 	714.4706250417
scalar RSUExampleScenario.node[71].veinsmobility 	startTime 	213.1
scalar RSUExampleScenario.node[71].veinsmobility 	totalTime 	295.7
scalar RSUExampleScenario.node[71].veinsmobility 	stopTime 	508.9
scalar RSUExampleScenario.node[71].veinsmobility 	minSpeed 	0.25613665643451
scalar RSUExampleScenario.node[71].veinsmobility 	maxSpeed 	13.999971384285
scalar RSUExampleScenario.node[71].veinsmobility 	totalDistance 	3409.781171123
scalar RSUExampleScenario.node[71].veinsmobility 	totalCO2Emission 	723.61813178491
scalar RSUExampleScenario.node[72].veinsmobility 	startTime 	216.1
scalar RSUExampleScenario.node[72].veinsmobility 	totalTime 	296.4
scalar RSUExampleScenario.node[72].veinsmobility 	stopTime 	512.6
scalar RSUExampleScenario.node[72].veinsmobility 	minSpeed 	0.24743289640127
scalar RSUExampleScenario.node[72].veinsmobility 	maxSpeed 	13.999987776214
scalar RSUExampleScenario.node[72].veinsmobility 	totalDistance 	3414.1912964683
scalar RSUExampleScenario.node[72].veinsmobility 	totalCO2Emission 	716.44305880148
scalar RSUExampleScenario.node[73].veinsmobility 	startTime 	219.1
scalar RSUExampleScenario.node[73].veinsmobility 	totalTime 	297.1
scalar RSUExampleScenario.node[73].veinsmobility 	stopTime 	516.3
scalar RSUExampleScenario.node[73].veinsmobility 	minSpeed 	0.25321740312479
scalar RSUExampleScenario.node[73].veinsmobility 	maxSpeed 	13.999962795896
scalar RSUExampleScenario.node[73].veinsmobility 	totalDistance 	3409.7617952853
scalar RSUExampleScenario.node[73].veinsmobility 	totalCO2Emission 	716.79027945451
scalar RSUExampleScenario.node[74].veinsmobility 	startTime 	222.1
scalar RSUExampleScenario.node[74].veinsmobility 	totalTime 	297.7
scalar RSUExampleScenario.node[74].veinsmobility 	stopTime 	519.9
scalar RSUExampleScenario.node[74].veinsmobility 	minSpeed 	0.24780127379857
scalar RSUExampleScenario.node[74].veinsmobility 	maxSpeed 	13.999983413357
scalar RSUExampleScenario.node[74].veinsmobility 	totalDistance 	3413.908975213
scalar RSUExampleScenario.node[74].veinsmobility 	totalCO2Emission 	720.52168816062
scalar RSUExampleScenario.node[75].veinsmobility 	startTime 	225.1
scalar RSUExampleScenario.node[75].veinsmobility 	totalTime 	298.4
scalar RSUExampleScenario.node[75].veinsmobility 	stopTime 	523.6
scalar RSUExampleScenario.node[75].veinsmobility 	minSpeed 	0.25692132466938
scalar RSUExampleScenario.node[75].veinsmobility 	maxSpeed 	13.999909839425
scalar RSUExampleScenario.node[75].veinsmobility 	totalDistance 	3409.6765812938
scalar RSUExampleScenario.node[75].veinsmobility 	totalCO2Emission 	715.40553124193
scalar RSUExampleScenario.node[76].veinsmobility 	startTime 	228.1
scalar RSUExampleScenario.node[76].veinsmobility 	totalTime 	299.1
scalar RSUExampleScenario.node[76].veinsmobility 	stopTime 	527.3
scalar RSUExampleScenario.node[76].veinsmobility 	minSpeed 	0.25426409952063
scalar RSUExampleScenario.node[76].veinsmobility 	maxSpeed 	13.999858923168
scalar RSUExampleScenario.node[76].veinsmobility 	totalDistance 	3414.0344044336
scalar RSUExampleScenario.node[76].veinsmobility 	totalCO2Emission 	720.17025200246
scalar RSUExampleScenario.node[77].veinsmobility 	startTime 	231.1
scalar RSUExampleScenario.node[77].veinsmobility 	totalTime 	299.8
scalar RSUExampleScenario.node[77].veinsmobility 	stopTime 	531
scalar RSUExampleScenario.node[77].veinsmobility 	minSpeed 	0.25357442980725
scalar RSUExampleScenario.node[77].veinsmobility 	maxSpeed 	13.999989848693
scalar RSUExampleScenario.node[77].veinsmobility 	totalDistance 	3409.444331035
scalar RSUExampleScenario.node[77].veinsmobility 	totalCO2Emission 	720.92639884424
scalar RSUExampleScenario.node[78].veinsmobility 	startTime 	234.1
scalar RSUExampleScenario.node[78].veinsmobility 	totalTime 	300.5
scalar RSUExampleScenario.node[78].veinsmobility 	stopTime 	534.7
scalar RSUExampleScenario.node[78].veinsmobility 	minSpeed 	0.25283434444782
scalar RSUExampleScenario.node[78].veinsmobility 	maxSpeed 	13.999659153689
scalar RSUExampleScenario.node[78].veinsmobility 	totalDistance 	3414.2893036187
scalar RSUExampleScenario.node[78].veinsmobility 	totalCO2Emission 	723.38116122767
scalar RSUExampleScenario.node[79].veinsmobility 	startTime 	237.1
scalar RSUExampleScenario.node[79].veinsmobility 	totalTime 	301.2
scalar RSUExampleScenario.node[79].veinsmobility 	stopTime 	538.4
scalar RSUExampleScenario.node[79].veinsmobility 	minSpeed 	0.25834291258361
scalar RSUExampleScenario.node[79].veinsmobility 	maxSpeed 	13.999994323058
scalar RSUExampleScenario.node[79].veinsmobility 	totalDistance 	3409.9026582747
scalar RSUExampleScenario.node[79].veinsmobility 	totalCO2Emission 	722.91325345004
scalar RSUExampleScenario.node[80].veinsmobility 	startTime 	240.1
scalar RSUExampleScenario.node[80].veinsmobility 	totalTime 	301.9
scalar RSUExampleScenario.node[80].veinsmobility 	stopTime 	542.1
scalar RSUExampleScenario.node[80].veinsmobility 	minSpeed 	0.2487051468906
scalar RSUExampleScenario.node[80].veinsmobility 	maxSpeed 	13.999813162517
scalar RSUExampleScenario.node[80].veinsmobility 	totalDistance 	3414.0116426048
scalar RSUExampleScenario.node[80].veinsmobility 	totalCO2Emission 	721.84346363054
scalar RSUExampleScenario.node[81].veinsmobility 	startTime 	243.1
scalar RSUExampleScenario.node[81].veinsmobility 	totalTime 	302.5
scalar RSUExampleScenario.node[81].veinsmobility 	stopTime 	545.7
scalar RSUExampleScenario.node[81].veinsmobility 	minSpeed 	0.25601301743882
scalar RSUExampleScenario.node[81].veinsmobility 	maxSpeed 	13.99967063603
scalar RSUExampleScenario.node[81].veinsmobility 	totalDistance 	3409.5954733465
scalar RSUExampleScenario.node[81].veinsmobility 	totalCO2Emission 	726.33789899337
scalar RSUExampleScenario.node[82].veinsmobility 	startTime 	246.1
scalar RSUExampleScenario.node[82].veinsmobility 	totalTime 	303.2
scalar RSUExampleScenario.node[82].veinsmobility 	stopTime 	549.4
scalar RSUExampleScenario.node[82].veinsmobility 	minSpeed 	0.24966617928096
scalar RSUExampleScenario.node[82].veinsmobility 	maxSpeed 	13.99990580552
scalar RSUExampleScenario.node[82].veinsmobility 	totalDistance 	3414.0587403053
scalar RSUExampleScenario.node[82].veinsmobility 	totalCO2Emission 	726.11570610502
scalar RSUExampleScenario.node[83].veinsmobility 	startTime 	249.1
scalar RSUExampleScenario.node[83].veinsmobility 	totalTime 	303.8
scalar RSUExampleScenario.node[83].veinsmobility 	stopTime 	553
scalar RSUExampleScenario.node[83].veinsmobility 	minSpeed 	0.25036706554331
scalar RSUExampleScenario.node[83].veinsmobility 	maxSpeed 	13.999994742754
scalar RSUExampleScenario.node[83].veinsmobility 	totalDistance 	3409.4716866569
scalar RSUExampleScenario.node[83].veinsmobility 	totalCO2Emission 	726.72935205512
scalar RSUExampleScenario.node[84].veinsmobility 	startTime 	252.1
scalar RSUExampleScenario.node[84].veinsmobility 	totalTime 	304.5
scalar RSUExampleScenario.node[84].veinsmobility 	stopTime 	556.7
scalar RSUExampleScenario.node[84].veinsmobility 	minSpeed 	0.2509837957148
scalar RSUExampleScenario.node[84].veinsmobility 	maxSpeed 	13.999986823378
scalar RSUExampleScenario.node[84].veinsmobility 	totalDistance 	3414.0056150677
scalar RSUExampleScenario.node[84].veinsmobility 	totalCO2Emission 	725.99074412855
scalar RSUExampleScenario.node[85].veinsmobility 	startTime 	255.1
scalar RSUExampleScenario.node[85].veinsmobility 	totalTime 	305.2
scalar RSUExampleScenario.node[85].veinsmobility 	stopTime 	560.4
scalar RSUExampleScenario.node[85].veinsmobility 	minSpeed 	0.25404528013524
scalar RSUExampleScenario.node[85].veinsmobility 	maxSpeed 	13.999906743555
scalar RSUExampleScenario.node[85].veinsmobility 	totalDistance 	3409.8410024491
scalar RSUExampleScenario.node[85].veinsmobility 	totalCO2Emission 	723.30125669308
scalar RSUExampleScenario.node[86].veinsmobility 	startTime 	258.1
scalar RSUExampleScenario.node[86].veinsmobility 	totalTime 	305.9
scalar RSUExampleScenario.node[86].veinsmobility 	stopTime 	564.1
scalar RSUExampleScenario.node[86].veinsmobility 	minSpeed 	0.25822935381928
scalar RSUExampleScenario.node[86].veinsmobility 	maxSpeed 	13.999990985589
scalar RSUExampleScenario.node[86].veinsmobility 	totalDistance 	3413.7177074545
scalar RSUExampleScenario.node[86].veinsmobility 	totalCO2Emission 	728.404364867
scalar RSUExampleScenario.node[87].veinsmobility 	startTime 	261.1
scalar RSUExampleScenario.node[87].veinsmobility 	totalTime 	306.6
scalar RSUExampleScenario.node[87].veinsmobility 	stopTime 	567.8
scalar RSUExampleScenario.node[87].veinsmobility 	minSpeed 	0.25461668548128
scalar RSUExampleScenario.node[87].veinsmobility 	maxSpeed 	13.999976753765
scalar RSUExampleScenario.node[87].veinsmobility 	totalDistance 	3409.7885963573
scalar RSUExampleScenario.node[87].veinsmobility 	totalCO2Emission 	729.69416706065
scalar RSUExampleScenario.node[88].veinsmobility 	startTime 	264.1
scalar RSUExampleScenario.node[88].veinsmobility 	totalTime 	307.3
scalar RSUExampleScenario.node[88].veinsmobility 	stopTime 	571.5
scalar RSUExampleScenario.node[88].veinsmobility 	minSpeed 	0.25600899410038
scalar RSUExampleScenario.node[88].veinsmobility 	maxSpeed 	13.999815938515
scalar RSUExampleScenario.node[88].veinsmobility 	totalDistance 	3413.9784860283
scalar RSUExampleScenario.node[88].veinsmobility 	totalCO2Emission 	731.14044927406
scalar RSUExampleScenario.node[89].veinsmobility 	startTime 	267.1
scalar RSUExampleScenario.node[89].veinsmobility 	totalTime 	308
scalar RSUExampleScenario.node[89].veinsmobility 	stopTime 	575.2
scalar RSUExampleScenario.node[89].veinsmobility 	minSpeed 	0.2497686094793
scalar RSUExampleScenario.node[89].veinsmobility 	maxSpeed 	13.999959054561
scalar RSUExampleScenario.node[89].veinsmobility 	totalDistance 	3410.1912938313
scalar RSUExampleScenario.node[89].veinsmobility 	totalCO2Emission 	728.00614312569
scalar RSUExampleScenario.node[90].veinsmobility 	startTime 	270.1
scalar RSUExampleScenario.node[90].veinsmobility 	totalTime 	308.7
scalar RSUExampleScenario.node[90].veinsmobility 	stopTime 	578.9
scalar RSUExampleScenario.node[90].veinsmobility 	minSpeed 	0.25453203333449
scalar RSUExampleScenario.node[90].veinsmobility 	maxSpeed 	13.99992358
scalar RSUExampleScenario.node[90].veinsmobility 	totalDistance 	3413.7894580441
scalar RSUExampleScenario.node[90].veinsmobility 	totalCO2Emission 	728.27223745541
scalar RSUExampleScenario.node[91].veinsmobility 	startTime 	273.1
scalar RSUExampleScenario.node[91].veinsmobility 	totalTime 	309.4
scalar RSUExampleScenario.node[91].veinsmobility 	stopTime 	582.6
scalar RSUExampleScenario.node[91].veinsmobility 	minSpeed 	0.25820203764201
scalar RSUExampleScenario.node[91].veinsmobility 	maxSpeed 	13.9998110101
scalar RSUExampleScenario.node[91].veinsmobility 	totalDistance 	3409.9998437103
scalar RSUExampleScenario.node[91].veinsmobility 	totalCO2Emission 	735.24515087781
scalar RSUExampleScenario.node[92].veinsmobility 	startTime 	276.1
scalar RSUExampleScenario.node[92].veinsmobility 	totalTime 	310.1
scalar RSUExampleScenario.node[92].veinsmobility 	stopTime 	586.3
scalar RSUExampleScenario.node[92].veinsmobility 	minSpeed 	0.25267597522913
scalar RSUExampleScenario.node[92].veinsmobility 	maxSpeed 	13.999990095529
scalar RSUExampleScenario.node[92].veinsmobility 	totalDistance 	3413.5784250095
scalar RSUExampleScenario.node[92].veinsmobility 	totalCO2Emission 	736.02313845138
scalar RSUExampleScenario.node[93].veinsmobility 	startTime 	279.1
scalar RSUExampleScenario.node[93].veinsmobility 	totalTime 	310.8
scalar RSUExampleScenario.node[93].veinsmobility 	stopTime 	590
scalar RSUExampleScenario.node[93].veinsmobility 	minSpeed 	0.25867469289829
scalar RSUExampleScenario.node[93].veinsmobility 	maxSpeed 	13.99990478788
scalar RSUExampleScenario.node[93].veinsmobility 	totalDistance 	3410.0114228894
scalar RSUExampleScenario.node[93].veinsmobility 	totalCO2Emission 	731.48317532536
scalar RSUExampleScenario.node[94].veinsmobility 	startTime 	282.1
scalar RSUExampleScenario.node[94].veinsmobility 	totalTime 	311.5
scalar RSUExampleScenario.node[94].veinsmobility 	stopTime 	593.7
scalar RSUExampleScenario.node[94].veinsmobility 	minSpeed 	0.25829779359256
scalar RSUExampleScenario.node[94].veinsmobility 	maxSpeed 	13.999983009249
scalar RSUExampleScenario.node[94].veinsmobility 	totalDistance 	3413.8210572617
scalar RSUExampleScenario.node[94].veinsmobility 	totalCO2Emission 	736.2663484011
scalar RSUExampleScenario.node[95].veinsmobility 	startTime 	285.1
scalar RSUExampleScenario.node[95].veinsmobility 	totalTime 	312.2
scalar RSUExampleScenario.node[95].veinsmobility 	stopTime 	597.4
scalar RSUExampleScenario.node[95].veinsmobility 	minSpeed 	0.24943374004751
scalar RSUExampleScenario.node[95].veinsmobility 	maxSpeed 	13.999966115083
scalar RSUExampleScenario.node[95].veinsmobility 	totalDistance 	3409.4981501685
scalar RSUExampleScenario.node[95].veinsmobility 	totalCO2Emission 	739.43187149033
scalar RSUExampleScenario.node[96].veinsmobility 	startTime 	288.1
scalar RSUExampleScenario.node[96].veinsmobility 	totalTime 	312.9
scalar RSUExampleScenario.node[96].veinsmobility 	stopTime 	601.1
scalar RSUExampleScenario.node[96].veinsmobility 	minSpeed 	0.25626836557081
scalar RSUExampleScenario.node[96].veinsmobility 	maxSpeed 	13.999785502786
scalar RSUExampleScenario.node[96].veinsmobility 	totalDistance 	3413.786522781
scalar RSUExampleScenario.node[96].veinsmobility 	totalCO2Emission 	736.53955355523
scalar RSUExampleScenario.node[97].veinsmobility 	startTime 	291.1
scalar RSUExampleScenario.node[97].veinsmobility 	totalTime 	313.6
scalar RSUExampleScenario.node[97].veinsmobility 	stopTime 	604.8
scalar RSUExampleScenario.node[97].veinsmobility 	minSpeed 	0.25118610592186
scalar RSUExampleScenario.node[97].veinsmobility 	maxSpeed 	13.999834666648
scalar RSUExampleScenario.node[97].veinsmobility 	totalDistance 	3409.97069213
scalar RSUExampleScenario.node[97].veinsmobility 	totalCO2Emission 	738.42432021398
scalar RSUExampleScenario.node[98].veinsmobility 	startTime 	294.1
scalar RSUExampleScenario.node[98].veinsmobility 	totalTime 	314.2
scalar RSUExampleScenario.node[98].veinsmobility 	stopTime 	608.4
scalar RSUExampleScenario.node[98].veinsmobility 	minSpeed 	0.25508718559053
scalar RSUExampleScenario.node[98].veinsmobility 	maxSpeed 	13.999953677121
scalar RSUExampleScenario.node[98].veinsmobility 	totalDistance 	3409.7408084932
scalar RSUExampleScenario.node[98].veinsmobility 	totalCO2Emission 	736.84959363587
scalar RSUExampleScenario.node[99].veinsmobility 	startTime 	297.1
scalar RSUExampleScenario.node[99].veinsmobility 	totalTime 	314.9
scalar RSUExampleScenario.node[99].veinsmobility 	stopTime 	612.1
scalar RSUExampleScenario.node[99].veinsmobility 	minSpeed 	0.25495643132436
scalar RSUExampleScenario.node[99].veinsmobility 	maxSpeed 	13.999991544457
scalar RSUExampleScenario.node[99].veinsmobility 	totalDistance 	3413.6112450296
scalar RSUExampleScenario.node[99].veinsmobility 	totalCO2Emission 	732.79271373856
scalar RSUExampleScenario.node[100].veinsmobility 	startTime 	300.1
scalar RSUExampleScenario.node[100].veinsmobility 	totalTime 	315.5
scalar RSUExampleScenario.node[100].veinsmobility 	stopTime 	615.7
scalar RSUExampleScenario.node[100].veinsmobility 	minSpeed 	0.2530725371649
scalar RSUExampleScenario.node[100].veinsmobility 	maxSpeed 	13.999997382939
scalar RSUExampleScenario.node[100].veinsmobility 	totalDistance 	3409.6998742938
scalar RSUExampleScenario.node[100].veinsmobility 	totalCO2Emission 	741.18251509834
scalar RSUExampleScenario.node[101].veinsmobility 	startTime 	303.1
scalar RSUExampleScenario.node[101].veinsmobility 	totalTime 	316.1
scalar RSUExampleScenario.node[101].veinsmobility 	stopTime 	619.3
scalar RSUExampleScenario.node[101].veinsmobility 	minSpeed 	0.25650227400009
scalar RSUExampleScenario.node[101].veinsmobility 	maxSpeed 	13.999840408817
scalar RSUExampleScenario.node[101].veinsmobility 	totalDistance 	3409.5190918265
scalar RSUExampleScenario.node[101].veinsmobility 	totalCO2Emission 	733.89628207699
scalar RSUExampleScenario.node[102].veinsmobility 	startTime 	306.1
scalar RSUExampleScenario.node[102].veinsmobility 	totalTime 	316.7
scalar RSUExampleScenario.node[102].veinsmobility 	stopTime 	622.9
scalar RSUExampleScenario.node[102].veinsmobility 	minSpeed 	0.2540962262731
scalar RSUExampleScenario.node[102].veinsmobility 	maxSpeed 	13.999944918505
scalar RSUExampleScenario.node[102].veinsmobility 	totalDistance 	3413.7185848304
scalar RSUExampleScenario.node[102].veinsmobility 	totalCO2Emission 	733.75555963096
scalar RSUExampleScenario.node[103].veinsmobility 	startTime 	309.1
scalar RSUExampleScenario.node[103].veinsmobility 	totalTime 	317.4
scalar RSUExampleScenario.node[103].veinsmobility 	stopTime 	626.6
scalar RSUExampleScenario.node[103].veinsmobility 	minSpeed 	0.25192764630262
scalar RSUExampleScenario.node[103].veinsmobility 	maxSpeed 	13.999952091321
scalar RSUExampleScenario.node[103].veinsmobility 	totalDistance 	3409.6803783712
scalar RSUExampleScenario.node[103].veinsmobility 	totalCO2Emission 	737.1972251749
scalar RSUExampleScenario.node[104].veinsmobility 	startTime 	312.1
scalar RSUExampleScenario.node[104].veinsmobility 	totalTime 	318.1
scalar RSUExampleScenario.node[104].veinsmobility 	stopTime 	630.3
scalar RSUExampleScenario.node[104].veinsmobility 	minSpeed 	0.2552027061379
scalar RSUExampleScenario.node[104].veinsmobility 	maxSpeed 	13.99974242297
scalar RSUExampleScenario.node[104].veinsmobility 	totalDistance 	3413.8694582205
scalar RSUExampleScenario.node[104].veinsmobility 	totalCO2Emission 	738.69215533592
scalar RSUExampleScenario.node[105].veinsmobility 	startTime 	315.1
scalar RSUExampleScenario.node[105].veinsmobility 	totalTime 	318.8
scalar RSUExampleScenario.node[105].veinsmobility 	stopTime 	634
scalar RSUExampleScenario.node[105].veinsmobility 	minSpeed 	0.25566165273683
scalar RSUExampleScenario.node[105].veinsmobility 	maxSpeed 	13.999939738018
scalar RSUExampleScenario.node[105].veinsmobility 	totalDistance 	3409.9012758168
scalar RSUExampleScenario.node[105].veinsmobility 	totalCO2Emission 	741.38454890103
scalar RSUExampleScenario.node[106].veinsmobility 	startTime 	318.1
scalar RSUExampleScenario.node[106].veinsmobility 	totalTime 	319.5
scalar RSUExampleScenario.node[106].veinsmobility 	stopTime 	637.7
scalar RSUExampleScenario.node[106].veinsmobility 	minSpeed 	0.25046254130313
scalar RSUExampleScenario.node[106].veinsmobility 	maxSpeed 	13.999994349361
scalar RSUExampleScenario.node[106].veinsmobility 	totalDistance 	3414.1744037277
scalar RSUExampleScenario.node[106].veinsmobility 	totalCO2Emission 	741.47888193465
scalar RSUExampleScenario.node[107].veinsmobility 	startTime 	321.1
scalar RSUExampleScenario.node[107].veinsmobility 	totalTime 	320.1
scalar RSUExampleScenario.node[107].veinsmobility 	stopTime 	641.3
scalar RSUExampleScenario.node[107].veinsmobility 	minSpeed 	0.25768628708483
scalar RSUExampleScenario.node[107].veinsmobility 	maxSpeed 	13.999877835512
scalar RSUExampleScenario.node[107].veinsmobility 	totalDistance 	3409.6651056978
scalar RSUExampleScenario.node[107].veinsmobility 	totalCO2Emission 	743.98734734385
scalar RSUExampleScenario.node[108].veinsmobility 	startTime 	324.1
scalar RSUExampleScenario.node[108].veinsmobility 	totalTime 	320.9
scalar RSUExampleScenario.node[108].veinsmobility 	stopTime 	645.1
scalar RSUExampleScenario.node[108].veinsmobility 	minSpeed 	0.25043006784283
scalar RSUExampleScenario.node[108].veinsmobility 	maxSpeed 	13.999805090227
scalar RSUExampleScenario.node[108].veinsmobility 	totalDistance 	3413.7991594063
scalar RSUExampleScenario.node[108].veinsmobility 	totalCO2Emission 	738.43865460198
scalar RSUExampleScenario.node[109].veinsmobility 	startTime 	327.1
scalar RSUExampleScenario.node[109].veinsmobility 	totalTime 	321.6
scalar RSUExampleScenario.node[109].veinsmobility 	stopTime 	648.8
scalar RSUExampleScenario.node[109].veinsmobility 	minSpeed 	0.24981162993354
scalar RSUExampleScenario.node[109].veinsmobility 	maxSpeed 	13.999934684657
scalar RSUExampleScenario.node[109].veinsmobility 	totalDistance 	3409.7894007906
scalar RSUExampleScenario.node[109].veinsmobility 	totalCO2Emission 	741.11159507223
scalar RSUExampleScenario.node[110].veinsmobility 	startTime 	330.1
scalar RSUExampleScenario.node[110].veinsmobility 	totalTime 	322.3
scalar RSUExampleScenario.node[110].veinsmobility 	stopTime 	652.5
scalar RSUExampleScenario.node[110].veinsmobility 	minSpeed 	0.25625127052236
scalar RSUExampleScenario.node[110].veinsmobility 	maxSpeed 	13.999945279935
scalar RSUExampleScenario.node[110].veinsmobility 	totalDistance 	3413.9503083118
scalar RSUExampleScenario.node[110].veinsmobility 	totalCO2Emission 	744.27801013143
scalar RSUExampleScenario.node[111].veinsmobility 	startTime 	333.1
scalar RSUExampleScenario.node[111].veinsmobility 	totalTime 	323
scalar RSUExampleScenario.node[111].veinsmobility 	stopTime 	656.2
scalar RSUExampleScenario.node[111].veinsmobility 	minSpeed 	0.25917984773614
scalar RSUExampleScenario.node[111].veinsmobility 	maxSpeed 	13.999856858195
scalar RSUExampleScenario.node[111].veinsmobility 	totalDistance 	3409.7112368114
scalar RSUExampleScenario.node[111].veinsmobility 	totalCO2Emission 	745.95048148071
scalar RSUExampleScenario.node[112].veinsmobility 	startTime 	336.1
scalar RSUExampleScenario.node[112].veinsmobility 	totalTime 	323.6
scalar RSUExampleScenario.node[112].veinsmobility 	stopTime 	659.8
scalar RSUExampleScenario.node[112].veinsmobility 	minSpeed 	0.25830561178247
scalar RSUExampleScenario.node[112].veinsmobility 	maxSpeed 	13.999917397099
scalar RSUExampleScenario.node[112].veinsmobility 	totalDistance 	3413.7471715081
scalar RSUExampleScenario.node[112].veinsmobility 	totalCO2Emission 	748.24856621236
scalar RSUExampleScenario.node[113].veinsmobility 	startTime 	339.1
scalar RSUExampleScenario.node[113].veinsmobility 	totalTime 	324.2
scalar RSUExampleScenario.node[113].veinsmobility 	stopTime 	663.4
scalar RSUExampleScenario.node[113].veinsmobility 	minSpeed 	0.24825712170964
scalar RSUExampleScenario.node[113].veinsmobility 	maxSpeed 	13.999983343044
scalar RSUExampleScenario.node[113].veinsmobility 	totalDistance 	3409.4901768513
scalar RSUExampleScenario.node[113].veinsmobility 	totalCO2Emission 	747.22750444977
scalar RSUExampleScenario.node[114].veinsmobility 	startTime 	342.1
scalar RSUExampleScenario.node[114].veinsmobility 	totalTime 	324.9
scalar RSUExampleScenario.node[114].veinsmobility 	stopTime 	667.1
scalar RSUExampleScenario.node[114].veinsmobility 	minSpeed 	0.25244498207886
scalar RSUExampleScenario.node[114].veinsmobility 	maxSpeed 	13.999986737447
scalar RSUExampleScenario.node[114].veinsmobility 	totalDistance 	3414.0493483515
scalar RSUExampleScenario.node[114].veinsmobility 	totalCO2Emission 	748.06978895748
scalar RSUExampleScenario.node[115].veinsmobility 	startTime 	345.1
scalar RSUExampleScenario.node[115].veinsmobility 	totalTime 	325.5
scalar RSUExampleScenario.node[115].veinsmobility 	stopTime 	670.7
scalar RSUExampleScenario.node[115].veinsmobility 	minSpeed 	0.25618793535675
scalar RSUExampleScenario.node[115].veinsmobility 	maxSpeed 	13.999963681931
scalar RSUExampleScenario.node[115].veinsmobility 	totalDistance 	3409.6215241145
scalar RSUExampleScenario.node[115].veinsmobility 	totalCO2Emission 	746.24777890239
scalar RSUExampleScenario.node[116].veinsmobility 	startTime 	348.1
scalar RSUExampleScenario.node[116].veinsmobility 	totalTime 	326.1
scalar RSUExampleScenario.node[116].veinsmobility 	stopTime 	674.3
scalar RSUExampleScenario.node[116].veinsmobility 	minSpeed 	0.25167083126912
scalar RSUExampleScenario.node[116].veinsmobility 	maxSpeed 	13.999983213951
scalar RSUExampleScenario.node[116].veinsmobility 	totalDistance 	3413.9992851585
scalar RSUExampleScenario.node[116].veinsmobility 	totalCO2Emission 	748.8701116526
scalar RSUExampleScenario.node[117].veinsmobility 	startTime 	351.1
scalar RSUExampleScenario.node[117].veinsmobility 	totalTime 	326.8
scalar RSUExampleScenario.node[117].veinsmobility 	stopTime 	678
scalar RSUExampleScenario.node[117].veinsmobility 	minSpeed 	0.24774935100065
scalar RSUExampleScenario.node[117].veinsmobility 	maxSpeed 	13.999798986597
scalar RSUExampleScenario.node[117].veinsmobility 	totalDistance 	3410.1186523046
scalar RSUExampleScenario.node[117].veinsmobility 	totalCO2Emission 	751.7092574671
scalar RSUExampleScenario.node[118].veinsmobility 	startTime 	354.1
scalar RSUExampleScenario.node[118].veinsmobility 	totalTime 	327.5
scalar RSUExampleScenario.node[118].veinsmobility 	stopTime 	681.7
scalar RSUExampleScenario.node[118].veinsmobility 	minSpeed 	0.25255094452668
scalar RSUExampleScenario.node[118].veinsmobility 	maxSpeed 	13.999814465523
scalar RSUExampleScenario.node[118].veinsmobility 	totalDistance 	3414.0306028997
scalar RSUExampleScenario.node[118].veinsmobility 	totalCO2Emission 	745.77904383094
scalar RSUExampleScenario.node[119].veinsmobility 	startTime 	357.1
scalar RSUExampleScenario.node[119].veinsmobility 	totalTime 	328.1
scalar RSUExampleScenario.node[119].veinsmobility 	stopTime 	685.3
scalar RSUExampleScenario.node[119].veinsmobility 	minSpeed 	0.25609025404463
scalar RSUExampleScenario.node[119].veinsmobility 	maxSpeed 	13.999945066879
scalar RSUExampleScenario.node[119].veinsmobility 	totalDistance 	3409.6297396352
scalar RSUExampleScenario.node[119].veinsmobility 	totalCO2Emission 	747.99987486663
scalar RSUExampleScenario.node[120].veinsmobility 	startTime 	360.1
scalar RSUExampleScenario.node[120].veinsmobility 	totalTime 	328.8
scalar RSUExampleScenario.node[120].veinsmobility 	stopTime 	689
scalar RSUExampleScenario.node[120].veinsmobility 	minSpeed 	0.24831812875578
scalar RSUExampleScenario.node[120].veinsmobility 	maxSpeed 	13.999974361777
scalar RSUExampleScenario.node[120].veinsmobility 	totalDistance 	3414.0236848494
scalar RSUExampleScenario.node[120].veinsmobility 	totalCO2Emission 	754.74979926875
scalar RSUExampleScenario.node[121].veinsmobility 	startTime 	363.1
scalar RSUExampleScenario.node[121].veinsmobility 	totalTime 	329.4
scalar RSUExampleScenario.node[121].veinsmobility 	stopTime 	692.6
scalar RSUExampleScenario.node[121].veinsmobility 	minSpeed 	0.25006372794695
scalar RSUExampleScenario.node[121].veinsmobility 	maxSpeed 	13.999730118429
scalar RSUExampleScenario.node[121].veinsmobility 	totalDistance 	3409.5497773194
scalar RSUExampleScenario.node[121].veinsmobility 	totalCO2Emission 	748.63347493653
scalar RSUExampleScenario.node[122].veinsmobility 	startTime 	366.1
scalar RSUExampleScenario.node[122].veinsmobility 	totalTime 	330.1
scalar RSUExampleScenario.node[122].veinsmobility 	stopTime 	696.3
scalar RSUExampleScenario.node[122].veinsmobility 	minSpeed 	0.25608941211342
scalar RSUExampleScenario.node[122].veinsmobility 	maxSpeed 	13.99994574697
scalar RSUExampleScenario.node[122].veinsmobility 	totalDistance 	3413.8713361308
scalar RSUExampleScenario.node[122].veinsmobility 	totalCO2Emission 	747.56264256542
scalar RSUExampleScenario.node[123].veinsmobility 	startTime 	369.1
scalar RSUExampleScenario.node[123].veinsmobility 	totalTime 	330.7
scalar RSUExampleScenario.node[123].veinsmobility 	stopTime 	699.9
scalar RSUExampleScenario.node[123].veinsmobility 	minSpeed 	0.25190568074817
scalar RSUExampleScenario.node[123].veinsmobility 	maxSpeed 	13.999913670928
scalar RSUExampleScenario.node[123].veinsmobility 	totalDistance 	3409.7951494153
scalar RSUExampleScenario.node[123].veinsmobility 	totalCO2Emission 	753.00720862843
scalar RSUExampleScenario.node[124].veinsmobility 	startTime 	372.1
scalar RSUExampleScenario.node[124].veinsmobility 	totalTime 	331.3
scalar RSUExampleScenario.node[124].veinsmobility 	stopTime 	703.5
scalar RSUExampleScenario.node[124].veinsmobility 	minSpeed 	0.2585925665875
scalar RSUExampleScenario.node[124].veinsmobility 	maxSpeed 	13.99995674914
scalar RSUExampleScenario.node[124].veinsmobility 	totalDistance 	3413.6783621899
scalar RSUExampleScenario.node[124].veinsmobility 	totalCO2Emission 	753.07951105483
scalar RSUExampleScenario.node[125].veinsmobility 	startTime 	375.1
scalar RSUExampleScenario.node[125].veinsmobility 	totalTime 	331.9
scalar RSUExampleScenario.node[125].veinsmobility 	stopTime 	707.1
scalar RSUExampleScenario.node[125].veinsmobility 	minSpeed 	0.25476302472921
scalar RSUExampleScenario.node[125].veinsmobility 	maxSpeed 	13.999986459527
scalar RSUExampleScenario.node[125].veinsmobility 	totalDistance 	3409.936500818
scalar RSUExampleScenario.node[125].veinsmobility 	totalCO2Emission 	751.8317731731
scalar RSUExampleScenario.node[126].veinsmobility 	startTime 	378.1
scalar RSUExampleScenario.node[126].veinsmobility 	totalTime 	332.5
scalar RSUExampleScenario.node[126].veinsmobility 	stopTime 	710.7
scalar RSUExampleScenario.node[126].veinsmobility 	minSpeed 	0.25098522884329
scalar RSUExampleScenario.node[126].veinsmobility 	maxSpeed 	13.999973619999
scalar RSUExampleScenario.node[126].veinsmobility 	totalDistance 	3413.767447717
scalar RSUExampleScenario.node[126].veinsmobility 	totalCO2Emission 	755.9793602179
scalar RSUExampleScenario.node[127].veinsmobility 	startTime 	381.1
scalar RSUExampleScenario.node[127].veinsmobility 	totalTime 	333.1
scalar RSUExampleScenario.node[127].veinsmobility 	stopTime 	714.3
scalar RSUExampleScenario.node[127].veinsmobility 	minSpeed 	0.24995362809277
scalar RSUExampleScenario.node[127].veinsmobility 	maxSpeed 	13.999864258384
scalar RSUExampleScenario.node[127].veinsmobility 	totalDistance 	3409.8065791315
scalar RSUExampleScenario.node[127].veinsmobility 	totalCO2Emission 	754.89991530039
scalar RSUExampleScenario.node[128].veinsmobility 	startTime 	384.1
scalar RSUExampleScenario.node[128].veinsmobility 	totalTime 	333.8
scalar RSUExampleScenario.node[128].veinsmobility 	stopTime 	718
scalar RSUExampleScenario.node[128].veinsmobility 	minSpeed 	0.25809861446917
scalar RSUExampleScenario.node[128].veinsmobility 	maxSpeed 	13.999924474692
scalar RSUExampleScenario.node[128].veinsmobility 	totalDistance 	3414.2823905424
scalar RSUExampleScenario.node[128].veinsmobility 	totalCO2Emission 	753.98136737979
scalar RSUExampleScenario.node[129].veinsmobility 	startTime 	387.1
scalar RSUExampleScenario.node[129].veinsmobility 	totalTime 	334.5
scalar RSUExampleScenario.node[129].veinsmobility 	stopTime 	721.7
scalar RSUExampleScenario.node[129].veinsmobility 	minSpeed 	0.25976968892361
scalar RSUExampleScenario.node[129].veinsmobility 	maxSpeed 	13.999923612175
scalar RSUExampleScenario.node[129].veinsmobility 	totalDistance 	3409.5702568826
scalar RSUExampleScenario.node[129].veinsmobility 	totalCO2Emission 	756.22285738734
scalar RSUExampleScenario.node[130].veinsmobility 	startTime 	390.1
scalar RSUExampleScenario.node[130].veinsmobility 	totalTime 	335.2
scalar RSUExampleScenario.node[130].veinsmobility 	stopTime 	725.4
scalar RSUExampleScenario.node[130].veinsmobility 	minSpeed 	0.24704405255918
scalar RSUExampleScenario.node[130].veinsmobility 	maxSpeed 	13.999943905526
scalar RSUExampleScenario.node[130].veinsmobility 	totalDistance 	3414.3204972329
scalar RSUExampleScenario.node[130].veinsmobility 	totalCO2Emission 	757.19363479678
scalar RSUExampleScenario.node[131].veinsmobility 	startTime 	393.1
scalar RSUExampleScenario.node[131].veinsmobility 	totalTime 	335.8
scalar RSUExampleScenario.node[131].veinsmobility 	stopTime 	729
scalar RSUExampleScenario.node[131].veinsmobility 	minSpeed 	0.25197172585782
scalar RSUExampleScenario.node[131].veinsmobility 	maxSpeed 	13.999907496411
scalar RSUExampleScenario.node[131].veinsmobility 	totalDistance 	3409.5806893732
scalar RSUExampleScenario.node[131].veinsmobility 	totalCO2Emission 	759.32422352822
scalar RSUExampleScenario.node[132].veinsmobility 	startTime 	396.1
scalar RSUExampleScenario.node[132].veinsmobility 	totalTime 	336.5
scalar RSUExampleScenario.node[132].veinsmobility 	stopTime 	732.7
scalar RSUExampleScenario.node[132].veinsmobility 	minSpeed 	0.25162180344644
scalar RSUExampleScenario.node[132].veinsmobility 	maxSpeed 	13.999975459778
scalar RSUExampleScenario.node[132].veinsmobility 	totalDistance 	3414.0954049146
scalar RSUExampleScenario.node[132].veinsmobility 	totalCO2Emission 	759.28297387135
scalar RSUExampleScenario.node[133].veinsmobility 	startTime 	399.1
scalar RSUExampleScenario.node[133].veinsmobility 	totalTime 	337.2
scalar RSUExampleScenario.node[133].veinsmobility 	stopTime 	736.4
scalar RSUExampleScenario.node[133].veinsmobility 	minSpeed 	0.25447053720616
scalar RSUExampleScenario.node[133].veinsmobility 	maxSpeed 	13.999986893691
scalar RSUExampleScenario.node[133].veinsmobility 	totalDistance 	3410.0496012978
scalar RSUExampleScenario.node[133].veinsmobility 	totalCO2Emission 	757.07051497859
scalar RSUExampleScenario.node[134].veinsmobility 	startTime 	402.1
scalar RSUExampleScenario.node[134].veinsmobility 	totalTime 	338
scalar RSUExampleScenario.node[134].veinsmobility 	stopTime 	740.2
scalar RSUExampleScenario.node[134].veinsmobility 	minSpeed 	0.25520455272705
scalar RSUExampleScenario.node[134].veinsmobility 	maxSpeed 	13.999914963553
scalar RSUExampleScenario.node[134].veinsmobility 	totalDistance 	3413.9856176609
scalar RSUExampleScenario.node[134].veinsmobility 	totalCO2Emission 	756.78193097945
scalar RSUExampleScenario.node[135].veinsmobility 	startTime 	405.1
scalar RSUExampleScenario.node[135].veinsmobility 	totalTime 	338.7
scalar RSUExampleScenario.node[135].veinsmobility 	stopTime 	743.9
scalar RSUExampleScenario.node[135].veinsmobility 	minSpeed 	0.25103976583853
scalar RSUExampleScenario.node[135].veinsmobility 	maxSpeed 	13.999905796924
scalar RSUExampleScenario.node[135].veinsmobility 	totalDistance 	3409.6648902374
scalar RSUExampleScenario.node[135].veinsmobility 	totalCO2Emission 	760.00624209464
scalar RSUExampleScenario.node[136].veinsmobility 	startTime 	408.1
scalar RSUExampleScenario.node[136].veinsmobility 	totalTime 	339.4
scalar RSUExampleScenario.node[136].veinsmobility 	stopTime 	747.6
scalar RSUExampleScenario.node[136].veinsmobility 	minSpeed 	0.25860647985339
scalar RSUExampleScenario.node[136].veinsmobility 	maxSpeed 	13.999819218263
scalar RSUExampleScenario.node[136].veinsmobility 	totalDistance 	3414.1981931888
scalar RSUExampleScenario.node[136].veinsmobility 	totalCO2Emission 	765.15432053622
scalar RSUExampleScenario.node[137].veinsmobility 	startTime 	411.1
scalar RSUExampleScenario.node[137].veinsmobility 	totalTime 	340.1
scalar RSUExampleScenario.node[137].veinsmobility 	stopTime 	751.3
scalar RSUExampleScenario.node[137].veinsmobility 	minSpeed 	0.24840913065337
scalar RSUExampleScenario.node[137].veinsmobility 	maxSpeed 	13.999941859986
scalar RSUExampleScenario.node[137].veinsmobility 	totalDistance 	3409.5218763728
scalar RSUExampleScenario.node[137].veinsmobility 	totalCO2Emission 	763.21727128169
scalar RSUExampleScenario.node[138].veinsmobility 	startTime 	414.1
scalar RSUExampleScenario.node[138].veinsmobility 	totalTime 	340.8
scalar RSUExampleScenario.node[138].veinsmobility 	stopTime 	755
scalar RSUExampleScenario.node[138].veinsmobility 	minSpeed 	0.25632877811743
scalar RSUExampleScenario.node[138].veinsmobility 	maxSpeed 	13.999726506914
scalar RSUExampleScenario.node[138].veinsmobility 	totalDistance 	3413.9066495345
scalar RSUExampleScenario.node[138].veinsmobility 	totalCO2Emission 	764.35583440011
scalar RSUExampleScenario.node[139].veinsmobility 	startTime 	417.1
scalar RSUExampleScenario.node[139].veinsmobility 	totalTime 	341.5
scalar RSUExampleScenario.node[139].veinsmobility 	stopTime 	758.7
scalar RSUExampleScenario.node[139].veinsmobility 	minSpeed 	0.25981245672796
scalar RSUExampleScenario.node[139].veinsmobility 	maxSpeed 	13.99996065713
scalar RSUExampleScenario.node[139].veinsmobility 	totalDistance 	3410.0082975059
scalar RSUExampleScenario.node[139].veinsmobility 	totalCO2Emission 	759.75475933521
scalar RSUExampleScenario.node[140].veinsmobility 	startTime 	420.1
scalar RSUExampleScenario.node[140].veinsmobility 	totalTime 	342.3
scalar RSUExampleScenario.node[140].veinsmobility 	stopTime 	762.5
scalar RSUExampleScenario.node[140].veinsmobility 	minSpeed 	0.24825778099475
scalar RSUExampleScenario.node[140].veinsmobility 	maxSpeed 	13.999961600129
scalar RSUExampleScenario.node[140].veinsmobility 	totalDistance 	3414.3094213043
scalar RSUExampleScenario.node[140].veinsmobility 	totalCO2Emission 	764.1443087251
scalar RSUExampleScenario.node[141].veinsmobility 	startTime 	423.1
scalar RSUExampleScenario.node[141].veinsmobility 	totalTime 	343
scalar RSUExampleScenario.node[141].veinsmobility 	stopTime 	766.2
scalar RSUExampleScenario.node[141].veinsmobility 	minSpeed 	0.2526315506734
scalar RSUExampleScenario.node[141].veinsmobility 	maxSpeed 	13.999982799704
scalar RSUExampleScenario.node[141].veinsmobility 	totalDistance 	3410.0822156012
scalar RSUExampleScenario.node[141].veinsmobility 	totalCO2Emission 	767.17362152287
scalar RSUExampleScenario.node[142].veinsmobility 	startTime 	426.1
scalar RSUExampleScenario.node[142].veinsmobility 	totalTime 	343.7
scalar RSUExampleScenario.node[142].veinsmobility 	stopTime 	769.9
scalar RSUExampleScenario.node[142].veinsmobility 	minSpeed 	0.25477386993845
scalar RSUExampleScenario.node[142].veinsmobility 	maxSpeed 	13.999980035238
scalar RSUExampleScenario.node[142].veinsmobility 	totalDistance 	3414.1315601236
scalar RSUExampleScenario.node[142].veinsmobility 	totalCO2Emission 	770.16276539874
scalar RSUExampleScenario.node[143].veinsmobility 	startTime 	429.1
scalar RSUExampleScenario.node[143].veinsmobility 	totalTime 	344.4
scalar RSUExampleScenario.node[143].veinsmobility 	stopTime 	773.6
scalar RSUExampleScenario.node[143].veinsmobility 	minSpeed 	0.25101773711783
scalar RSUExampleScenario.node[143].veinsmobility 	maxSpeed 	13.999993770849
scalar RSUExampleScenario.node[143].veinsmobility 	totalDistance 	3409.984345706
scalar RSUExampleScenario.node[143].veinsmobility 	totalCO2Emission 	764.91664251401
scalar RSUExampleScenario.node[144].veinsmobility 	startTime 	432.1
scalar RSUExampleScenario.node[144].veinsmobility 	totalTime 	345
scalar RSUExampleScenario.node[144].veinsmobility 	stopTime 	777.2
scalar RSUExampleScenario.node[144].veinsmobility 	minSpeed 	0.25190431139432
scalar RSUExampleScenario.node[144].veinsmobility 	maxSpeed 	13.999918339795
scalar RSUExampleScenario.node[144].veinsmobility 	totalDistance 	3413.8034997193
scalar RSUExampleScenario.node[144].veinsmobility 	totalCO2Emission 	765.00918166892
scalar RSUExampleScenario.node[145].veinsmobility 	startTime 	435.1
scalar RSUExampleScenario.node[145].veinsmobility 	totalTime 	345.7
scalar RSUExampleScenario.node[145].veinsmobility 	stopTime 	780.9
scalar RSUExampleScenario.node[145].veinsmobility 	minSpeed 	0.25186364476918
scalar RSUExampleScenario.node[145].veinsmobility 	maxSpeed 	13.999843381618
scalar RSUExampleScenario.node[145].veinsmobility 	totalDistance 	3409.5715169267
scalar RSUExampleScenario.node[145].veinsmobility 	totalCO2Emission 	767.68614048435
scalar RSUExampleScenario.node[146].veinsmobility 	startTime 	438.1
scalar RSUExampleScenario.node[146].veinsmobility 	totalTime 	346.4
scalar RSUExampleScenario.node[146].veinsmobility 	stopTime 	784.6
scalar RSUExampleScenario.node[146].veinsmobility 	minSpeed 	0.25282943443605
scalar RSUExampleScenario.node[146].veinsmobility 	maxSpeed 	13.99999336889
scalar RSUExampleScenario.node[146].veinsmobility 	totalDistance 	3413.9488098278
scalar RSUExampleScenario.node[146].veinsmobility 	totalCO2Emission 	767.72966177902
scalar RSUExampleScenario.node[147].veinsmobility 	startTime 	441.1
scalar RSUExampleScenario.node[147].veinsmobility 	totalTime 	347
scalar RSUExampleScenario.node[147].veinsmobility 	stopTime 	788.2
scalar RSUExampleScenario.node[147].veinsmobility 	minSpeed 	0.25319320489792
scalar RSUExampleScenario.node[147].veinsmobility 	maxSpeed 	13.999819858915
scalar RSUExampleScenario.node[147].veinsmobility 	totalDistance 	3409.805014153
scalar RSUExampleScenario.node[147].veinsmobility 	totalCO2Emission 	767.6731459731
scalar RSUExampleScenario.node[148].veinsmobility 	startTime 	444.1
scalar RSUExampleScenario.node[148].veinsmobility 	totalTime 	347.7
scalar RSUExampleScenario.node[148].veinsmobility 	stopTime 	791.9
scalar RSUExampleScenario.node[148].veinsmobility 	minSpeed 	0.25046353411721
scalar RSUExampleScenario.node[148].veinsmobility 	maxSpeed 	13.999861822962
scalar RSUExampleScenario.node[148].veinsmobility 	totalDistance 	3413.9931432555
scalar RSUExampleScenario.node[148].veinsmobility 	totalCO2Emission 	767.99167936774
scalar RSUExampleScenario.node[149].veinsmobility 	startTime 	447.1
scalar RSUExampleScenario.node[149].veinsmobility 	totalTime 	348.5
scalar RSUExampleScenario.node[149].veinsmobility 	stopTime 	795.7
scalar RSUExampleScenario.node[149].veinsmobility 	minSpeed 	0.25211134298006
scalar RSUExampleScenario.node[149].veinsmobility 	maxSpeed 	13.999982675212
scalar RSUExampleScenario.node[149].veinsmobility 	totalDistance 	3410.2096430306
scalar RSUExampleScenario.node[149].veinsmobility 	totalCO2Emission 	771.97222494933
scalar RSUExampleScenario.node[150].veinsmobility 	startTime 	450.1
scalar RSUExampleScenario.node[150].veinsmobility 	totalTime 	349.1
scalar RSUExampleScenario.node[150].veinsmobility 	stopTime 	799.3
scalar RSUExampleScenario.node[150].veinsmobility 	minSpeed 	0.25480355834169
scalar RSUExampleScenario.node[150].veinsmobility 	maxSpeed 	13.999668578019
scalar RSUExampleScenario.node[150].veinsmobility 	totalDistance 	3413.8536213042
scalar RSUExampleScenario.node[150].veinsmobility 	totalCO2Emission 	767.60462083625
scalar RSUExampleScenario.node[151].veinsmobility 	startTime 	453.1
scalar RSUExampleScenario.node[151].veinsmobility 	totalTime 	349.7
scalar RSUExampleScenario.node[151].veinsmobility 	stopTime 	802.9
scalar RSUExampleScenario.node[151].veinsmobility 	minSpeed 	0.25672278130683
scalar RSUExampleScenario.node[151].veinsmobility 	maxSpeed 	13.999999331865
scalar RSUExampleScenario.node[151].veinsmobility 	totalDistance 	3410.0687317577
scalar RSUExampleScenario.node[151].veinsmobility 	totalCO2Emission 	772.41704707914
scalar RSUExampleScenario.node[152].veinsmobility 	startTime 	456.1
scalar RSUExampleScenario.node[152].veinsmobility 	totalTime 	350.4
scalar RSUExampleScenario.node[152].veinsmobility 	stopTime 	806.6
scalar RSUExampleScenario.node[152].veinsmobility 	minSpeed 	0.25633129871706
scalar RSUExampleScenario.node[152].veinsmobility 	maxSpeed 	13.999994279775
scalar RSUExampleScenario.node[152].veinsmobility 	totalDistance 	3413.9151268081
scalar RSUExampleScenario.node[152].veinsmobility 	totalCO2Emission 	771.73115779128
[...]
scalar RSUExampleScenario.node[628].veinsmobility 	totalCO2Emission 	325.37379990479
scalar RSUExampleScenario.node[629].veinsmobility 	startTime 	1887.1
scalar RSUExampleScenario.node[629].veinsmobility 	totalTime 	112.8
scalar RSUExampleScenario.node[629].veinsmobility 	stopTime 	2000
scalar RSUExampleScenario.node[629].veinsmobility 	minSpeed 	0.25996911274549
scalar RSUExampleScenario.node[629].veinsmobility 	maxSpeed 	13.999985529119
scalar RSUExampleScenario.node[629].veinsmobility 	totalDistance 	1363.0568471011
scalar RSUExampleScenario.node[629].veinsmobility 	totalCO2Emission 	314.30010024756
scalar RSUExampleScenario.node[630].veinsmobility 	startTime 	1890.1
scalar RSUExampleScenario.node[630].veinsmobility 	totalTime 	109.8
scalar RSUExampleScenario.node[630].veinsmobility 	stopTime 	2000
scalar RSUExampleScenario.node[630].veinsmobility 	minSpeed 	0.25287270969525
scalar RSUExampleScenario.node[630].veinsmobility 	maxSpeed 	13.999788762163
scalar RSUExampleScenario.node[630].veinsmobility 	totalDistance 	1322.0978964865
scalar RSUExampleScenario.node[630].veinsmobility 	totalCO2Emission 	308.8890209036
scalar RSUExampleScenario.node[631].veinsmobility 	startTime 	1893.1
scalar RSUExampleScenario.node[631].veinsmobility 	totalTime 	106.8
scalar RSUExampleScenario.node[631].veinsmobility 	stopTime 	2000
scalar RSUExampleScenario.node[631].veinsmobility 	minSpeed 	0.25544354807842
scalar RSUExampleScenario.node[631].veinsmobility 	maxSpeed 	13.999872358763
scalar RSUExampleScenario.node[631].veinsmobility 	totalDistance 	1280.5553113059
scalar RSUExampleScenario.node[631].veinsmobility 	totalCO2Emission 	304.5794310421
scalar RSUExampleScenario.node[632].veinsmobility 	startTime 	1896.1
scalar RSUExampleScenario.node[632].veinsmobility 	totalTime 	103.8
scalar RSUExampleScenario.node[632].veinsmobility 	stopTime 	2000
scalar RSUExampleScenario.node[632].veinsmobility 	minSpeed 	0.25251969780051
scalar RSUExampleScenario.node[632].veinsmobility 	maxSpeed 	13.999954447441
scalar RSUExampleScenario.node[632].veinsmobility 	totalDistance 	1238.8419593562
scalar RSUExampleScenario.node[632].veinsmobility 	totalCO2Emission 	295.91340822998
scalar RSUExampleScenario.node[633].veinsmobility 	startTime 	1899.1
scalar RSUExampleScenario.node[633].veinsmobility 	totalTime 	100.8
scalar RSUExampleScenario.node[633].veinsmobility 	stopTime 	2000
scalar RSUExampleScenario.node[633].veinsmobility 	minSpeed 	0.25583590965648
scalar RSUExampleScenario.node[633].veinsmobility 	maxSpeed 	13.999982773552
scalar RSUExampleScenario.node[633].veinsmobility 	totalDistance 	1196.4952727301
scalar RSUExampleScenario.node[633].veinsmobility 	totalCO2Emission 	289.68308233364
scalar RSUExampleScenario.node[634].veinsmobility 	startTime 	1902.1
scalar RSUExampleScenario.node[634].veinsmobility 	totalTime 	97.8
scalar RSUExampleScenario.node[634].veinsmobility 	stopTime 	2000
scalar RSUExampleScenario.node[634].veinsmobility 	minSpeed 	0.25149868401885
scalar RSUExampleScenario.node[634].veinsmobility 	maxSpeed 	13.999531564543
scalar RSUExampleScenario.node[634].veinsmobility 	totalDistance 	1154.5848751188
scalar RSUExampleScenario.node[634].veinsmobility 	totalCO2Emission 	282.46154804751
scalar RSUExampleScenario.node[635].veinsmobility 	startTime 	1905.1
scalar RSUExampleScenario.node[635].veinsmobility 	totalTime 	94.8
scalar RSUExampleScenario.node[635].veinsmobility 	stopTime 	2000
scalar RSUExampleScenario.node[635].veinsmobility 	minSpeed 	0.25526425946061
scalar RSUExampleScenario.node[635].veinsmobility 	maxSpeed 	13.999647704249
scalar RSUExampleScenario.node[635].veinsmobility 	totalDistance 	1109.5086725589
scalar RSUExampleScenario.node[635].veinsmobility 	totalCO2Emission 	274.01757123231
scalar RSUExampleScenario.node[636].veinsmobility 	startTime 	1908.1
scalar RSUExampleScenario.node[636].veinsmobility 	totalTime 	91.8
scalar RSUExampleScenario.node[636].veinsmobility 	stopTime 	2000
scalar RSUExampleScenario.node[636].veinsmobility 	minSpeed 	0.24927566234884
scalar RSUExampleScenario.node[636].veinsmobility 	maxSpeed 	13.999755567084
scalar RSUExampleScenario.node[636].veinsmobility 	totalDistance 	1069.3356739983
scalar RSUExampleScenario.node[636].veinsmobility 	totalCO2Emission 	266.74462383098
scalar RSUExampleScenario.node[637].veinsmobility 	startTime 	1911.1
scalar RSUExampleScenario.node[637].veinsmobility 	totalTime 	88.8
scalar RSUExampleScenario.node[637].veinsmobility 	stopTime 	2000
scalar RSUExampleScenario.node[637].veinsmobility 	minSpeed 	0.25185842543375
scalar RSUExampleScenario.node[637].veinsmobility 	maxSpeed 	13.999979415168
scalar RSUExampleScenario.node[637].veinsmobility 	totalDistance 	1027.9212447619
scalar RSUExampleScenario.node[637].veinsmobility 	totalCO2Emission 	259.54328225916
scalar RSUExampleScenario.node[638].veinsmobility 	startTime 	1914.1
scalar RSUExampleScenario.node[638].veinsmobility 	totalTime 	85.8
scalar RSUExampleScenario.node[638].veinsmobility 	stopTime 	2000
scalar RSUExampleScenario.node[638].veinsmobility 	minSpeed 	0.24984878135007
scalar RSUExampleScenario.node[638].veinsmobility 	maxSpeed 	13.999785494916
scalar RSUExampleScenario.node[638].veinsmobility 	totalDistance 	985.92392868301
scalar RSUExampleScenario.node[638].veinsmobility 	totalCO2Emission 	253.57476828667
scalar RSUExampleScenario.node[639].veinsmobility 	startTime 	1917.1
scalar RSUExampleScenario.node[639].veinsmobility 	totalTime 	82.8
scalar RSUExampleScenario.node[639].veinsmobility 	stopTime 	2000
scalar RSUExampleScenario.node[639].veinsmobility 	minSpeed 	0.2555347803426
scalar RSUExampleScenario.node[639].veinsmobility 	maxSpeed 	13.999696655418
scalar RSUExampleScenario.node[639].veinsmobility 	totalDistance 	953.3158474991
scalar RSUExampleScenario.node[639].veinsmobility 	totalCO2Emission 	232.69290880753
scalar RSUExampleScenario.node[640].veinsmobility 	startTime 	1920.1
scalar RSUExampleScenario.node[640].veinsmobility 	totalTime 	79.8
scalar RSUExampleScenario.node[640].veinsmobility 	stopTime 	2000
scalar RSUExampleScenario.node[640].veinsmobility 	minSpeed 	0.25526240880648
scalar RSUExampleScenario.node[640].veinsmobility 	maxSpeed 	13.999796304915
scalar RSUExampleScenario.node[640].veinsmobility 	totalDistance 	937.44582381724
scalar RSUExampleScenario.node[640].veinsmobility 	totalCO2Emission 	219.4890527461
scalar RSUExampleScenario.node[641].veinsmobility 	startTime 	1923.1
scalar RSUExampleScenario.node[641].veinsmobility 	totalTime 	76.8
scalar RSUExampleScenario.node[641].veinsmobility 	stopTime 	2000
scalar RSUExampleScenario.node[641].veinsmobility 	minSpeed 	0.25402188909496
scalar RSUExampleScenario.node[641].veinsmobility 	maxSpeed 	13.999999371727
scalar RSUExampleScenario.node[641].veinsmobility 	totalDistance 	913.46932617615
scalar RSUExampleScenario.node[641].veinsmobility 	totalCO2Emission 	216.97201335889
scalar RSUExampleScenario.node[642].veinsmobility 	startTime 	1926.1
scalar RSUExampleScenario.node[642].veinsmobility 	totalTime 	73.8
scalar RSUExampleScenario.node[642].veinsmobility 	stopTime 	2000
scalar RSUExampleScenario.node[642].veinsmobility 	minSpeed 	0.24855671991152
scalar RSUExampleScenario.node[642].veinsmobility 	maxSpeed 	13.999844441481
scalar RSUExampleScenario.node[642].veinsmobility 	totalDistance 	872.20185815524
scalar RSUExampleScenario.node[642].veinsmobility 	totalCO2Emission 	215.21104049499
scalar RSUExampleScenario.node[643].veinsmobility 	startTime 	1929.1
scalar RSUExampleScenario.node[643].veinsmobility 	totalTime 	70.8
scalar RSUExampleScenario.node[643].veinsmobility 	stopTime 	2000
scalar RSUExampleScenario.node[643].veinsmobility 	minSpeed 	0.25256472893571
scalar RSUExampleScenario.node[643].veinsmobility 	maxSpeed 	13.99966611366
scalar RSUExampleScenario.node[643].veinsmobility 	totalDistance 	831.5060500714
scalar RSUExampleScenario.node[643].veinsmobility 	totalCO2Emission 	204.81016411319
scalar RSUExampleScenario.node[644].veinsmobility 	startTime 	1932.1
scalar RSUExampleScenario.node[644].veinsmobility 	totalTime 	67.8
scalar RSUExampleScenario.node[644].veinsmobility 	stopTime 	2000
scalar RSUExampleScenario.node[644].veinsmobility 	minSpeed 	0.25612622739188
scalar RSUExampleScenario.node[644].veinsmobility 	maxSpeed 	13.999997731415
scalar RSUExampleScenario.node[644].veinsmobility 	totalDistance 	790.84422543747
scalar RSUExampleScenario.node[644].veinsmobility 	totalCO2Emission 	199.93742018988
scalar RSUExampleScenario.node[645].veinsmobility 	startTime 	1935.1
scalar RSUExampleScenario.node[645].veinsmobility 	totalTime 	64.8
scalar RSUExampleScenario.node[645].veinsmobility 	stopTime 	2000
scalar RSUExampleScenario.node[645].veinsmobility 	minSpeed 	0.24778773264121
scalar RSUExampleScenario.node[645].veinsmobility 	maxSpeed 	13.999137233251
scalar RSUExampleScenario.node[645].veinsmobility 	totalDistance 	747.53357072602
scalar RSUExampleScenario.node[645].veinsmobility 	totalCO2Emission 	193.72064274761
scalar RSUExampleScenario.node[646].veinsmobility 	startTime 	1938.1
scalar RSUExampleScenario.node[646].veinsmobility 	totalTime 	61.8
scalar RSUExampleScenario.node[646].veinsmobility 	stopTime 	2000
scalar RSUExampleScenario.node[646].veinsmobility 	minSpeed 	0.25440781871439
scalar RSUExampleScenario.node[646].veinsmobility 	maxSpeed 	13.999408281622
scalar RSUExampleScenario.node[646].veinsmobility 	totalDistance 	704.06090994736
scalar RSUExampleScenario.node[646].veinsmobility 	totalCO2Emission 	184.00052971099
scalar RSUExampleScenario.node[647].veinsmobility 	startTime 	1941.1
scalar RSUExampleScenario.node[647].veinsmobility 	totalTime 	58.8
scalar RSUExampleScenario.node[647].veinsmobility 	stopTime 	2000
scalar RSUExampleScenario.node[647].veinsmobility 	minSpeed 	0.25372267829301
scalar RSUExampleScenario.node[647].veinsmobility 	maxSpeed 	13.998707838317
scalar RSUExampleScenario.node[647].veinsmobility 	totalDistance 	661.95752080815
scalar RSUExampleScenario.node[647].veinsmobility 	totalCO2Emission 	177.41635109126
scalar RSUExampleScenario.node[648].veinsmobility 	startTime 	1944.1
scalar RSUExampleScenario.node[648].veinsmobility 	totalTime 	55.8
scalar RSUExampleScenario.node[648].veinsmobility 	stopTime 	2000
scalar RSUExampleScenario.node[648].veinsmobility 	minSpeed 	0.25031339410343
scalar RSUExampleScenario.node[648].veinsmobility 	maxSpeed 	13.999940830874
scalar RSUExampleScenario.node[648].veinsmobility 	totalDistance 	623.64948598784
scalar RSUExampleScenario.node[648].veinsmobility 	totalCO2Emission 	171.74586806249
scalar RSUExampleScenario.node[649].veinsmobility 	startTime 	1947.1
scalar RSUExampleScenario.node[649].veinsmobility 	totalTime 	52.8
scalar RSUExampleScenario.node[649].veinsmobility 	stopTime 	2000
scalar RSUExampleScenario.node[649].veinsmobility 	minSpeed 	0.25928255066718
scalar RSUExampleScenario.node[649].veinsmobility 	maxSpeed 	13.998844010041
scalar RSUExampleScenario.node[649].veinsmobility 	totalDistance 	579.85430416824
scalar RSUExampleScenario.node[649].veinsmobility 	totalCO2Emission 	165.01061816625
scalar RSUExampleScenario.node[650].veinsmobility 	startTime 	1950.1
scalar RSUExampleScenario.node[650].veinsmobility 	totalTime 	49.8
scalar RSUExampleScenario.node[650].veinsmobility 	stopTime 	2000
scalar RSUExampleScenario.node[650].veinsmobility 	minSpeed 	0.25518700170959
scalar RSUExampleScenario.node[650].veinsmobility 	maxSpeed 	13.998066559143
scalar RSUExampleScenario.node[650].veinsmobility 	totalDistance 	539.79136712134
scalar RSUExampleScenario.node[650].veinsmobility 	totalCO2Emission 	156.95832271836
scalar RSUExampleScenario.node[651].veinsmobility 	startTime 	1953.1
scalar RSUExampleScenario.node[651].veinsmobility 	totalTime 	46.8
scalar RSUExampleScenario.node[651].veinsmobility 	stopTime 	2000
scalar RSUExampleScenario.node[651].veinsmobility 	minSpeed 	0.25269872007822
scalar RSUExampleScenario.node[651].veinsmobility 	maxSpeed 	13.999857057903
scalar RSUExampleScenario.node[651].veinsmobility 	totalDistance 	495.84160370773
scalar RSUExampleScenario.node[651].veinsmobility 	totalCO2Emission 	150.43473474848
scalar RSUExampleScenario.node[652].veinsmobility 	startTime 	1956.1
scalar RSUExampleScenario.node[652].veinsmobility 	totalTime 	43.8
scalar RSUExampleScenario.node[652].veinsmobility 	stopTime 	2000
scalar RSUExampleScenario.node[652].veinsmobility 	minSpeed 	0.25079637976503
scalar RSUExampleScenario.node[652].veinsmobility 	maxSpeed 	13.998835756052
scalar RSUExampleScenario.node[652].veinsmobility 	totalDistance 	455.03336063983
scalar RSUExampleScenario.node[652].veinsmobility 	totalCO2Emission 	143.37995544417
scalar RSUExampleScenario.node[653].veinsmobility 	startTime 	1959.1
scalar RSUExampleScenario.node[653].veinsmobility 	totalTime 	40.8
scalar RSUExampleScenario.node[653].veinsmobility 	stopTime 	2000
scalar RSUExampleScenario.node[653].veinsmobility 	minSpeed 	0.25682974274643
scalar RSUExampleScenario.node[653].veinsmobility 	maxSpeed 	13.996504010172
scalar RSUExampleScenario.node[653].veinsmobility 	totalDistance 	413.35696405574
scalar RSUExampleScenario.node[653].veinsmobility 	totalCO2Emission 	135.4971134896
scalar RSUExampleScenario.node[654].veinsmobility 	startTime 	1962.1
scalar RSUExampleScenario.node[654].veinsmobility 	totalTime 	37.8
scalar RSUExampleScenario.node[654].veinsmobility 	stopTime 	2000
scalar RSUExampleScenario.node[654].veinsmobility 	minSpeed 	0.25296064627543
scalar RSUExampleScenario.node[654].veinsmobility 	maxSpeed 	13.997166972179
scalar RSUExampleScenario.node[654].veinsmobility 	totalDistance 	371.95538902618
scalar RSUExampleScenario.node[654].veinsmobility 	totalCO2Emission 	128.75811996516
scalar RSUExampleScenario.node[655].veinsmobility 	startTime 	1965.1
scalar RSUExampleScenario.node[655].veinsmobility 	totalTime 	34.8
scalar RSUExampleScenario.node[655].veinsmobility 	stopTime 	2000
scalar RSUExampleScenario.node[655].veinsmobility 	minSpeed 	0.25701591446716
scalar RSUExampleScenario.node[655].veinsmobility 	maxSpeed 	13.998024372384
scalar RSUExampleScenario.node[655].veinsmobility 	totalDistance 	330.31529315127
scalar RSUExampleScenario.node[655].veinsmobility 	totalCO2Emission 	122.18242274661
scalar RSUExampleScenario.node[656].veinsmobility 	startTime 	1968.1
scalar RSUExampleScenario.node[656].veinsmobility 	totalTime 	31.8
scalar RSUExampleScenario.node[656].veinsmobility 	stopTime 	2000
scalar RSUExampleScenario.node[656].veinsmobility 	minSpeed 	0.25822286597686
scalar RSUExampleScenario.node[656].veinsmobility 	maxSpeed 	13.992495871137
scalar RSUExampleScenario.node[656].veinsmobility 	totalDistance 	289.52518608242
scalar RSUExampleScenario.node[656].veinsmobility 	totalCO2Emission 	115.56512948768
scalar RSUExampleScenario.node[657].veinsmobility 	startTime 	1971.1
scalar RSUExampleScenario.node[657].veinsmobility 	totalTime 	28.8
scalar RSUExampleScenario.node[657].veinsmobility 	stopTime 	2000
scalar RSUExampleScenario.node[657].veinsmobility 	minSpeed 	0.24992045487603
scalar RSUExampleScenario.node[657].veinsmobility 	maxSpeed 	13.888723737483
scalar RSUExampleScenario.node[657].veinsmobility 	totalDistance 	249.77657822652
scalar RSUExampleScenario.node[657].veinsmobility 	totalCO2Emission 	100.4538778633
scalar RSUExampleScenario.node[658].veinsmobility 	startTime 	1974.1
scalar RSUExampleScenario.node[658].veinsmobility 	totalTime 	25.8
scalar RSUExampleScenario.node[658].veinsmobility 	stopTime 	2000
scalar RSUExampleScenario.node[658].veinsmobility 	minSpeed 	0.25778869969747
scalar RSUExampleScenario.node[658].veinsmobility 	maxSpeed 	13.885708999364
scalar RSUExampleScenario.node[658].veinsmobility 	totalDistance 	225.96950544404
scalar RSUExampleScenario.node[658].veinsmobility 	totalCO2Emission 	83.33545441551
scalar RSUExampleScenario.node[659].veinsmobility 	startTime 	1977.1
scalar RSUExampleScenario.node[659].veinsmobility 	totalTime 	22.8
scalar RSUExampleScenario.node[659].veinsmobility 	stopTime 	2000
scalar RSUExampleScenario.node[659].veinsmobility 	minSpeed 	0.25734595130058
scalar RSUExampleScenario.node[659].veinsmobility 	maxSpeed 	13.889958542821
scalar RSUExampleScenario.node[659].veinsmobility 	totalDistance 	208.15389823603
scalar RSUExampleScenario.node[659].veinsmobility 	totalCO2Emission 	78.395025934274
scalar RSUExampleScenario.node[660].veinsmobility 	startTime 	1980.1
scalar RSUExampleScenario.node[660].veinsmobility 	totalTime 	19.8
scalar RSUExampleScenario.node[660].veinsmobility 	stopTime 	2000
scalar RSUExampleScenario.node[660].veinsmobility 	minSpeed 	0.25256830765866
scalar RSUExampleScenario.node[660].veinsmobility 	maxSpeed 	13.889854153055
scalar RSUExampleScenario.node[660].veinsmobility 	totalDistance 	175.0345031004
scalar RSUExampleScenario.node[660].veinsmobility 	totalCO2Emission 	76.01881975647
scalar RSUExampleScenario.node[661].veinsmobility 	startTime 	1983.1
scalar RSUExampleScenario.node[661].veinsmobility 	totalTime 	16.8
scalar RSUExampleScenario.node[661].veinsmobility 	stopTime 	2000
scalar RSUExampleScenario.node[661].veinsmobility 	minSpeed 	0.24706478432403
scalar RSUExampleScenario.node[661].veinsmobility 	maxSpeed 	13.883711016874
scalar RSUExampleScenario.node[661].veinsmobility 	totalDistance 	137.8204889192
scalar RSUExampleScenario.node[661].veinsmobility 	totalCO2Emission 	57.922692041416
scalar RSUExampleScenario.node[662].veinsmobility 	startTime 	1986.1
scalar RSUExampleScenario.node[662].veinsmobility 	totalTime 	13.8
scalar RSUExampleScenario.node[662].veinsmobility 	stopTime 	2000
scalar RSUExampleScenario.node[662].veinsmobility 	minSpeed 	0.25357976680039
scalar RSUExampleScenario.node[662].veinsmobility 	maxSpeed 	13.87840950792
scalar RSUExampleScenario.node[662].veinsmobility 	totalDistance 	116.79310548974
scalar RSUExampleScenario.node[662].veinsmobility 	totalCO2Emission 	43.209430254976
scalar RSUExampleScenario.node[663].veinsmobility 	startTime 	1989.1
scalar RSUExampleScenario.node[663].veinsmobility 	totalTime 	10.8
scalar RSUExampleScenario.node[663].veinsmobility 	stopTime 	2000
scalar RSUExampleScenario.node[663].veinsmobility 	minSpeed 	0.25025565904449
scalar RSUExampleScenario.node[663].veinsmobility 	maxSpeed 	13.888859567512
scalar RSUExampleScenario.node[663].veinsmobility 	totalDistance 	97.169724314405
scalar RSUExampleScenario.node[663].veinsmobility 	totalCO2Emission 	39.355964299467
scalar RSUExampleScenario.node[664].veinsmobility 	startTime 	1992.1
scalar RSUExampleScenario.node[664].veinsmobility 	totalTime 	7.8
scalar RSUExampleScenario.node[664].veinsmobility 	stopTime 	2000
scalar RSUExampleScenario.node[664].veinsmobility 	minSpeed 	0.25804776418698
scalar RSUExampleScenario.node[664].veinsmobility 	maxSpeed 	13.884468067756
scalar RSUExampleScenario.node[664].veinsmobility 	totalDistance 	62.616946786887
scalar RSUExampleScenario.node[664].veinsmobility 	totalCO2Emission 	35.930690612391
scalar RSUExampleScenario.node[665].veinsmobility 	startTime 	1995.1
scalar RSUExampleScenario.node[665].veinsmobility 	totalTime 	4.8
scalar RSUExampleScenario.node[665].veinsmobility 	stopTime 	2000
scalar RSUExampleScenario.node[665].veinsmobility 	minSpeed 	0.25659998515039
scalar RSUExampleScenario.node[665].veinsmobility 	maxSpeed 	10.065605037981
scalar RSUExampleScenario.node[665].veinsmobility 	totalDistance 	25.140575282541
scalar RSUExampleScenario.node[665].veinsmobility 	totalCO2Emission 	19.005418514842
scalar RSUExampleScenario.node[666].veinsmobility 	startTime 	1998.1
scalar RSUExampleScenario.node[666].veinsmobility 	totalTime 	1.8
scalar RSUExampleScenario.node[666].veinsmobility 	stopTime 	2000
scalar RSUExampleScenario.node[666].veinsmobility 	minSpeed 	0.25534176128358
scalar RSUExampleScenario.node[666].veinsmobility 	maxSpeed 	3.9497177837455
scalar RSUExampleScenario.node[666].veinsmobility 	totalDistance 	3.8767270778286
scalar RSUExampleScenario.node[666].veinsmobility 	totalCO2Emission 	4.0469871310446
