version 2
run statisticRVV-208-20150326-05:58:51-8048
attr c 9
attr configname statisticRVV
attr datetime 20150326-05:58:51
attr experiment statisticRVV
attr inifile omnetpp.ini
attr iterationvars "$sc=\"erlangen-medium.launchd.xml\", $p=1/8, $c=9"
attr iterationvars2 "$sc=\"erlangen-medium.launchd.xml\", $p=1/8, $c=9, $repetition=8"
attr measurement "$sc=\"erlangen-medium.launchd.xml\", $p=1/8, $c=9"
attr network RSUExampleScenario
attr p 1/8
attr processid 8048
attr repetition 8
attr replication #8
attr resultdir results
attr runnumber 208
attr sc "\"erlangen-medium.launchd.xml\""
attr seedset 208

scalar . 	c 	9
scalar RSUExampleScenario.node[0].veinsmobility 	startTime 	0.1
scalar RSUExampleScenario.node[0].veinsmobility 	totalTime 	264.6
scalar RSUExampleScenario.node[0].veinsmobility 	stopTime 	264.8
scalar RSUExampleScenario.node[0].veinsmobility 	minSpeed 	0.25855821603397
scalar RSUExampleScenario.node[0].veinsmobility 	maxSpeed 	13.999956478362
scalar RSUExampleScenario.node[0].veinsmobility 	totalDistance 	3409.0999211296
scalar RSUExampleScenario.node[0].veinsmobility 	totalCO2Emission 	690.66116956948
scalar RSUExampleScenario.node[1].veinsmobility 	startTime 	3.1
scalar RSUExampleScenario.node[1].veinsmobility 	totalTime 	265.6
scalar RSUExampleScenario.node[1].veinsmobility 	stopTime 	268.8
scalar RSUExampleScenario.node[1].veinsmobility 	minSpeed 	0.2516624702774
scalar RSUExampleScenario.node[1].veinsmobility 	maxSpeed 	13.999941408054
scalar RSUExampleScenario.node[1].veinsmobility 	totalDistance 	3409.5467297718
scalar RSUExampleScenario.node[1].veinsmobility 	totalCO2Emission 	693.27504094993
scalar RSUExampleScenario.node[2].veinsmobility 	startTime 	6.1
scalar RSUExampleScenario.node[2].veinsmobility 	totalTime 	266.1
scalar RSUExampleScenario.node[2].veinsmobility 	stopTime 	272.3
scalar RSUExampleScenario.node[2].veinsmobility 	minSpeed 	0.25298785170214
scalar RSUExampleScenario.node[2].veinsmobility 	maxSpeed 	13.99990264521
scalar RSUExampleScenario.node[2].veinsmobility 	totalDistance 	3409.1789652187
scalar RSUExampleScenario.node[2].veinsmobility 	totalCO2Emission 	691.5223447418
scalar RSUExampleScenario.node[3].veinsmobility 	startTime 	9.1
scalar RSUExampleScenario.node[3].veinsmobility 	totalTime 	266.3
scalar RSUExampleScenario.node[3].veinsmobility 	stopTime 	275.5
scalar RSUExampleScenario.node[3].veinsmobility 	minSpeed 	0.25065738129616
scalar RSUExampleScenario.node[3].veinsmobility 	maxSpeed 	13.999839237779
scalar RSUExampleScenario.node[3].veinsmobility 	totalDistance 	3409.5674723247
scalar RSUExampleScenario.node[3].veinsmobility 	totalCO2Emission 	692.22682661009
scalar RSUExampleScenario.node[4].veinsmobility 	startTime 	12.1
scalar RSUExampleScenario.node[4].veinsmobility 	totalTime 	266.5
scalar RSUExampleScenario.node[4].veinsmobility 	stopTime 	278.7
scalar RSUExampleScenario.node[4].veinsmobility 	minSpeed 	0.25406033193739
scalar RSUExampleScenario.node[4].veinsmobility 	maxSpeed 	13.999893694755
scalar RSUExampleScenario.node[4].veinsmobility 	totalDistance 	3413.7390021379
scalar RSUExampleScenario.node[4].veinsmobility 	totalCO2Emission 	696.33031807933
scalar RSUExampleScenario.node[5].veinsmobility 	startTime 	15.1
scalar RSUExampleScenario.node[5].veinsmobility 	totalTime 	266.7
scalar RSUExampleScenario.node[5].veinsmobility 	stopTime 	281.9
scalar RSUExampleScenario.node[5].veinsmobility 	minSpeed 	0.25636827344121
scalar RSUExampleScenario.node[5].veinsmobility 	maxSpeed 	13.999996856882
scalar RSUExampleScenario.node[5].veinsmobility 	totalDistance 	3409.502573493
scalar RSUExampleScenario.node[5].veinsmobility 	totalCO2Emission 	691.6410007369
scalar RSUExampleScenario.node[6].veinsmobility 	startTime 	18.1
scalar RSUExampleScenario.node[6].veinsmobility 	totalTime 	266.8
scalar RSUExampleScenario.node[6].veinsmobility 	stopTime 	285
scalar RSUExampleScenario.node[6].veinsmobility 	minSpeed 	0.2578239288216
scalar RSUExampleScenario.node[6].veinsmobility 	maxSpeed 	13.999831454428
scalar RSUExampleScenario.node[6].veinsmobility 	totalDistance 	3413.6381650162
scalar RSUExampleScenario.node[6].veinsmobility 	totalCO2Emission 	691.72112138194
scalar RSUExampleScenario.node[7].veinsmobility 	startTime 	21.1
scalar RSUExampleScenario.node[7].veinsmobility 	totalTime 	267
scalar RSUExampleScenario.node[7].veinsmobility 	stopTime 	288.2
scalar RSUExampleScenario.node[7].veinsmobility 	minSpeed 	0.25406388936681
scalar RSUExampleScenario.node[7].veinsmobility 	maxSpeed 	13.999488979487
scalar RSUExampleScenario.node[7].veinsmobility 	totalDistance 	3409.2236084989
scalar RSUExampleScenario.node[7].veinsmobility 	totalCO2Emission 	692.32150865836
scalar RSUExampleScenario.node[8].veinsmobility 	startTime 	24.1
scalar RSUExampleScenario.node[8].veinsmobility 	totalTime 	267
scalar RSUExampleScenario.node[8].veinsmobility 	stopTime 	291.2
scalar RSUExampleScenario.node[8].veinsmobility 	minSpeed 	0.25138736637472
scalar RSUExampleScenario.node[8].veinsmobility 	maxSpeed 	13.999928104973
scalar RSUExampleScenario.node[8].veinsmobility 	totalDistance 	3413.5014725044
scalar RSUExampleScenario.node[8].veinsmobility 	totalCO2Emission 	688.63722210367
scalar RSUExampleScenario.node[9].veinsmobility 	startTime 	27.1
scalar RSUExampleScenario.node[9].veinsmobility 	totalTime 	267
scalar RSUExampleScenario.node[9].veinsmobility 	stopTime 	294.2
scalar RSUExampleScenario.node[9].veinsmobility 	minSpeed 	0.25936691085203
scalar RSUExampleScenario.node[9].veinsmobility 	maxSpeed 	13.999980460291
scalar RSUExampleScenario.node[9].veinsmobility 	totalDistance 	3409.4910686636
scalar RSUExampleScenario.node[9].veinsmobility 	totalCO2Emission 	689.4332194151
scalar RSUExampleScenario.node[10].veinsmobility 	startTime 	30.1
scalar RSUExampleScenario.node[10].veinsmobility 	totalTime 	267
scalar RSUExampleScenario.node[10].veinsmobility 	stopTime 	297.2
scalar RSUExampleScenario.node[10].veinsmobility 	minSpeed 	0.25891201174841
scalar RSUExampleScenario.node[10].veinsmobility 	maxSpeed 	13.999975538626
scalar RSUExampleScenario.node[10].veinsmobility 	totalDistance 	3413.3616813082
scalar RSUExampleScenario.node[10].veinsmobility 	totalCO2Emission 	689.96326305502
scalar RSUExampleScenario.node[11].veinsmobility 	startTime 	33.1
scalar RSUExampleScenario.node[11].veinsmobility 	totalTime 	267.1
scalar RSUExampleScenario.node[11].veinsmobility 	stopTime 	300.3
scalar RSUExampleScenario.node[11].veinsmobility 	minSpeed 	0.25019639936602
scalar RSUExampleScenario.node[11].veinsmobility 	maxSpeed 	13.999927548768
scalar RSUExampleScenario.node[11].veinsmobility 	totalDistance 	3409.2781722499
scalar RSUExampleScenario.node[11].veinsmobility 	totalCO2Emission 	693.6526706047
scalar RSUExampleScenario.node[12].veinsmobility 	startTime 	36.1
scalar RSUExampleScenario.node[12].veinsmobility 	totalTime 	267.1
scalar RSUExampleScenario.node[12].veinsmobility 	stopTime 	303.3
scalar RSUExampleScenario.node[12].veinsmobility 	minSpeed 	0.25014241124131
scalar RSUExampleScenario.node[12].veinsmobility 	maxSpeed 	13.999993776933
scalar RSUExampleScenario.node[12].veinsmobility 	totalDistance 	3414.0100291422
scalar RSUExampleScenario.node[12].veinsmobility 	totalCO2Emission 	692.18772401535
scalar RSUExampleScenario.node[13].veinsmobility 	startTime 	39.1
scalar RSUExampleScenario.node[13].veinsmobility 	totalTime 	267.1
scalar RSUExampleScenario.node[13].veinsmobility 	stopTime 	306.3
scalar RSUExampleScenario.node[13].veinsmobility 	minSpeed 	0.24845162626682
scalar RSUExampleScenario.node[13].veinsmobility 	maxSpeed 	13.999993768549
scalar RSUExampleScenario.node[13].veinsmobility 	totalDistance 	3409.7310814991
scalar RSUExampleScenario.node[13].veinsmobility 	totalCO2Emission 	689.68595282301
scalar RSUExampleScenario.node[14].veinsmobility 	startTime 	42.1
scalar RSUExampleScenario.node[14].veinsmobility 	totalTime 	267.1
scalar RSUExampleScenario.node[14].veinsmobility 	stopTime 	309.3
scalar RSUExampleScenario.node[14].veinsmobility 	minSpeed 	0.25012169319997
scalar RSUExampleScenario.node[14].veinsmobility 	maxSpeed 	13.99997546568
scalar RSUExampleScenario.node[14].veinsmobility 	totalDistance 	3413.4953307609
scalar RSUExampleScenario.node[14].veinsmobility 	totalCO2Emission 	694.89443676245
scalar RSUExampleScenario.node[15].veinsmobility 	startTime 	45.1
scalar RSUExampleScenario.node[15].veinsmobility 	totalTime 	267.1
scalar RSUExampleScenario.node[15].veinsmobility 	stopTime 	312.3
scalar RSUExampleScenario.node[15].veinsmobility 	minSpeed 	0.25198381791427
scalar RSUExampleScenario.node[15].veinsmobility 	maxSpeed 	13.999973997986
scalar RSUExampleScenario.node[15].veinsmobility 	totalDistance 	3409.3660401299
scalar RSUExampleScenario.node[15].veinsmobility 	totalCO2Emission 	691.43380195041
scalar RSUExampleScenario.node[16].veinsmobility 	startTime 	48.1
scalar RSUExampleScenario.node[16].veinsmobility 	totalTime 	267.1
scalar RSUExampleScenario.node[16].veinsmobility 	stopTime 	315.3
scalar RSUExampleScenario.node[16].veinsmobility 	minSpeed 	0.25465228829999
scalar RSUExampleScenario.node[16].veinsmobility 	maxSpeed 	13.999834154393
scalar RSUExampleScenario.node[16].veinsmobility 	totalDistance 	3413.8210198023
scalar RSUExampleScenario.node[16].veinsmobility 	totalCO2Emission 	691.58230586242
scalar RSUExampleScenario.node[17].veinsmobility 	startTime 	51.1
scalar RSUExampleScenario.node[17].veinsmobility 	totalTime 	267.2
scalar RSUExampleScenario.node[17].veinsmobility 	stopTime 	318.4
scalar RSUExampleScenario.node[17].veinsmobility 	minSpeed 	0.249753288395
scalar RSUExampleScenario.node[17].veinsmobility 	maxSpeed 	13.999772823618
scalar RSUExampleScenario.node[17].veinsmobility 	totalDistance 	3409.5489467548
scalar RSUExampleScenario.node[17].veinsmobility 	totalCO2Emission 	692.4833874085
scalar RSUExampleScenario.node[18].veinsmobility 	startTime 	54.1
scalar RSUExampleScenario.node[18].veinsmobility 	totalTime 	267.2
scalar RSUExampleScenario.node[18].veinsmobility 	stopTime 	321.4
scalar RSUExampleScenario.node[18].veinsmobility 	minSpeed 	0.24979504273646
scalar RSUExampleScenario.node[18].veinsmobility 	maxSpeed 	13.999946117057
scalar RSUExampleScenario.node[18].veinsmobility 	totalDistance 	3413.6781494061
scalar RSUExampleScenario.node[18].veinsmobility 	totalCO2Emission 	692.35618382404
scalar RSUExampleScenario.node[19].veinsmobility 	startTime 	57.1
scalar RSUExampleScenario.node[19].veinsmobility 	totalTime 	267.2
scalar RSUExampleScenario.node[19].veinsmobility 	stopTime 	324.4
scalar RSUExampleScenario.node[19].veinsmobility 	minSpeed 	0.25639393944433
scalar RSUExampleScenario.node[19].veinsmobility 	maxSpeed 	13.999971412737
scalar RSUExampleScenario.node[19].veinsmobility 	totalDistance 	3409.2742808803
scalar RSUExampleScenario.node[19].veinsmobility 	totalCO2Emission 	685.90273245851
scalar RSUExampleScenario.node[20].veinsmobility 	startTime 	60.1
scalar RSUExampleScenario.node[20].veinsmobility 	totalTime 	267.2
scalar RSUExampleScenario.node[20].veinsmobility 	stopTime 	327.4
scalar RSUExampleScenario.node[20].veinsmobility 	minSpeed 	0.25976792845596
scalar RSUExampleScenario.node[20].veinsmobility 	maxSpeed 	13.999931283111
scalar RSUExampleScenario.node[20].veinsmobility 	totalDistance 	3413.5450489447
scalar RSUExampleScenario.node[20].veinsmobility 	totalCO2Emission 	694.27999777396
scalar RSUExampleScenario.node[21].veinsmobility 	startTime 	63.1
scalar RSUExampleScenario.node[21].veinsmobility 	totalTime 	267.2
scalar RSUExampleScenario.node[21].veinsmobility 	stopTime 	330.4
scalar RSUExampleScenario.node[21].veinsmobility 	minSpeed 	0.2553979168532
scalar RSUExampleScenario.node[21].veinsmobility 	maxSpeed 	13.999915321926
scalar RSUExampleScenario.node[21].veinsmobility 	totalDistance 	3409.4196262899
scalar RSUExampleScenario.node[21].veinsmobility 	totalCO2Emission 	688.76490515248
scalar RSUExampleScenario.node[22].veinsmobility 	startTime 	66.1
scalar RSUExampleScenario.node[22].veinsmobility 	totalTime 	267.2
scalar RSUExampleScenario.node[22].veinsmobility 	stopTime 	333.4
scalar RSUExampleScenario.node[22].veinsmobility 	minSpeed 	0.25265795563906
scalar RSUExampleScenario.node[22].veinsmobility 	maxSpeed 	13.999999333832
scalar RSUExampleScenario.node[22].veinsmobility 	totalDistance 	3413.9492900033
scalar RSUExampleScenario.node[22].veinsmobility 	totalCO2Emission 	693.72918383459
scalar RSUExampleScenario.node[23].veinsmobility 	startTime 	69.1
scalar RSUExampleScenario.node[23].veinsmobility 	totalTime 	267.2
scalar RSUExampleScenario.node[23].veinsmobility 	stopTime 	336.4
scalar RSUExampleScenario.node[23].veinsmobility 	minSpeed 	0.24799214719352
scalar RSUExampleScenario.node[23].veinsmobility 	maxSpeed 	13.999974703835
scalar RSUExampleScenario.node[23].veinsmobility 	totalDistance 	3409.3950138715
scalar RSUExampleScenario.node[23].veinsmobility 	totalCO2Emission 	695.61600227669
scalar RSUExampleScenario.node[24].veinsmobility 	startTime 	72.1
scalar RSUExampleScenario.node[24].veinsmobility 	totalTime 	267.2
scalar RSUExampleScenario.node[24].veinsmobility 	stopTime 	339.4
scalar RSUExampleScenario.node[24].veinsmobility 	minSpeed 	0.24852026715572
scalar RSUExampleScenario.node[24].veinsmobility 	maxSpeed 	13.999975877204
scalar RSUExampleScenario.node[24].veinsmobility 	totalDistance 	3413.8114458234
scalar RSUExampleScenario.node[24].veinsmobility 	totalCO2Emission 	689.42705832035
scalar RSUExampleScenario.node[25].veinsmobility 	startTime 	75.1
scalar RSUExampleScenario.node[25].veinsmobility 	totalTime 	267.2
scalar RSUExampleScenario.node[25].veinsmobility 	stopTime 	342.4
scalar RSUExampleScenario.node[25].veinsmobility 	minSpeed 	0.25290864441451
scalar RSUExampleScenario.node[25].veinsmobility 	maxSpeed 	13.999946584334
scalar RSUExampleScenario.node[25].veinsmobility 	totalDistance 	3409.8061784612
scalar RSUExampleScenario.node[25].veinsmobility 	totalCO2Emission 	691.34916582883
scalar RSUExampleScenario.node[26].veinsmobility 	startTime 	78.1
scalar RSUExampleScenario.node[26].veinsmobility 	totalTime 	267.2
scalar RSUExampleScenario.node[26].veinsmobility 	stopTime 	345.4
scalar RSUExampleScenario.node[26].veinsmobility 	minSpeed 	0.24969622456795
scalar RSUExampleScenario.node[26].veinsmobility 	maxSpeed 	13.999656802472
scalar RSUExampleScenario.node[26].veinsmobility 	totalDistance 	3413.4585802722
scalar RSUExampleScenario.node[26].veinsmobility 	totalCO2Emission 	691.20752126671
scalar RSUExampleScenario.node[27].veinsmobility 	startTime 	81.1
scalar RSUExampleScenario.node[27].veinsmobility 	totalTime 	267.2
scalar RSUExampleScenario.node[27].veinsmobility 	stopTime 	348.4
scalar RSUExampleScenario.node[27].veinsmobility 	minSpeed 	0.25773520516185
scalar RSUExampleScenario.node[27].veinsmobility 	maxSpeed 	13.999888303936
scalar RSUExampleScenario.node[27].veinsmobility 	totalDistance 	3409.6183025316
scalar RSUExampleScenario.node[27].veinsmobility 	totalCO2Emission 	691.6584906952
scalar RSUExampleScenario.node[28].veinsmobility 	startTime 	84.1
scalar RSUExampleScenario.node[28].veinsmobility 	totalTime 	267.2
scalar RSUExampleScenario.node[28].veinsmobility 	stopTime 	351.4
scalar RSUExampleScenario.node[28].veinsmobility 	minSpeed 	0.25373561143922
scalar RSUExampleScenario.node[28].veinsmobility 	maxSpeed 	13.999981573639
scalar RSUExampleScenario.node[28].veinsmobility 	totalDistance 	3414.1055590462
scalar RSUExampleScenario.node[28].veinsmobility 	totalCO2Emission 	692.87487750952
scalar RSUExampleScenario.node[29].veinsmobility 	startTime 	87.1
scalar RSUExampleScenario.node[29].veinsmobility 	totalTime 	267.2
scalar RSUExampleScenario.node[29].veinsmobility 	stopTime 	354.4
scalar RSUExampleScenario.node[29].veinsmobility 	minSpeed 	0.24975497309281
scalar RSUExampleScenario.node[29].veinsmobility 	maxSpeed 	13.999983666246
scalar RSUExampleScenario.node[29].veinsmobility 	totalDistance 	3409.5422218802
scalar RSUExampleScenario.node[29].veinsmobility 	totalCO2Emission 	694.13910430056
scalar RSUExampleScenario.node[30].veinsmobility 	startTime 	90.1
scalar RSUExampleScenario.node[30].veinsmobility 	totalTime 	267.3
scalar RSUExampleScenario.node[30].veinsmobility 	stopTime 	357.5
scalar RSUExampleScenario.node[30].veinsmobility 	minSpeed 	0.24893443363789
scalar RSUExampleScenario.node[30].veinsmobility 	maxSpeed 	13.999960093631
scalar RSUExampleScenario.node[30].veinsmobility 	totalDistance 	3413.9683899758
scalar RSUExampleScenario.node[30].veinsmobility 	totalCO2Emission 	692.31851355575
scalar RSUExampleScenario.node[31].veinsmobility 	startTime 	93.1
scalar RSUExampleScenario.node[31].veinsmobility 	totalTime 	267.4
scalar RSUExampleScenario.node[31].veinsmobility 	stopTime 	360.6
scalar RSUExampleScenario.node[31].veinsmobility 	minSpeed 	0.25211255508568
scalar RSUExampleScenario.node[31].veinsmobility 	maxSpeed 	13.999820323286
scalar RSUExampleScenario.node[31].veinsmobility 	totalDistance 	3410.124384177
scalar RSUExampleScenario.node[31].veinsmobility 	totalCO2Emission 	690.13383031056
scalar RSUExampleScenario.node[32].veinsmobility 	startTime 	96.1
scalar RSUExampleScenario.node[32].veinsmobility 	totalTime 	267.5
scalar RSUExampleScenario.node[32].veinsmobility 	stopTime 	363.7
scalar RSUExampleScenario.node[32].veinsmobility 	minSpeed 	0.25125631398102
scalar RSUExampleScenario.node[32].veinsmobility 	maxSpeed 	13.999953755757
scalar RSUExampleScenario.node[32].veinsmobility 	totalDistance 	3414.0291303138
scalar RSUExampleScenario.node[32].veinsmobility 	totalCO2Emission 	688.55434420272
scalar RSUExampleScenario.node[33].veinsmobility 	startTime 	99.1
scalar RSUExampleScenario.node[33].veinsmobility 	totalTime 	267.6
scalar RSUExampleScenario.node[33].veinsmobility 	stopTime 	366.8
scalar RSUExampleScenario.node[33].veinsmobility 	minSpeed 	0.25981859632512
scalar RSUExampleScenario.node[33].veinsmobility 	maxSpeed 	13.999984831079
scalar RSUExampleScenario.node[33].veinsmobility 	totalDistance 	3409.8635026407
scalar RSUExampleScenario.node[33].veinsmobility 	totalCO2Emission 	690.86590392339
scalar RSUExampleScenario.node[34].veinsmobility 	startTime 	102.1
scalar RSUExampleScenario.node[34].veinsmobility 	totalTime 	267.7
scalar RSUExampleScenario.node[34].veinsmobility 	stopTime 	369.9
scalar RSUExampleScenario.node[34].veinsmobility 	minSpeed 	0.25857283781888
scalar RSUExampleScenario.node[34].veinsmobility 	maxSpeed 	13.999930637071
scalar RSUExampleScenario.node[34].veinsmobility 	totalDistance 	3413.7931240453
scalar RSUExampleScenario.node[34].veinsmobility 	totalCO2Emission 	690.17678226024
scalar RSUExampleScenario.node[35].veinsmobility 	startTime 	105.1
scalar RSUExampleScenario.node[35].veinsmobility 	totalTime 	267.9
scalar RSUExampleScenario.node[35].veinsmobility 	stopTime 	373.1
scalar RSUExampleScenario.node[35].veinsmobility 	minSpeed 	0.24978246762115
scalar RSUExampleScenario.node[35].veinsmobility 	maxSpeed 	13.999966410226
scalar RSUExampleScenario.node[35].veinsmobility 	totalDistance 	3410.0442357418
scalar RSUExampleScenario.node[35].veinsmobility 	totalCO2Emission 	694.46316222775
scalar RSUExampleScenario.node[36].veinsmobility 	startTime 	108.1
scalar RSUExampleScenario.node[36].veinsmobility 	totalTime 	268.1
scalar RSUExampleScenario.node[36].veinsmobility 	stopTime 	376.3
scalar RSUExampleScenario.node[36].veinsmobility 	minSpeed 	0.25653022819618
scalar RSUExampleScenario.node[36].veinsmobility 	maxSpeed 	13.999866111118
scalar RSUExampleScenario.node[36].veinsmobility 	totalDistance 	3413.7624028612
scalar RSUExampleScenario.node[36].veinsmobility 	totalCO2Emission 	693.360113591
scalar RSUExampleScenario.node[37].veinsmobility 	startTime 	111.1
scalar RSUExampleScenario.node[37].veinsmobility 	totalTime 	268.3
scalar RSUExampleScenario.node[37].veinsmobility 	stopTime 	379.5
scalar RSUExampleScenario.node[37].veinsmobility 	minSpeed 	0.2536555761951
scalar RSUExampleScenario.node[37].veinsmobility 	maxSpeed 	13.999988090638
scalar RSUExampleScenario.node[37].veinsmobility 	totalDistance 	3409.4308933633
scalar RSUExampleScenario.node[37].veinsmobility 	totalCO2Emission 	693.66409832594
scalar RSUExampleScenario.node[38].veinsmobility 	startTime 	114.1
scalar RSUExampleScenario.node[38].veinsmobility 	totalTime 	268.5
scalar RSUExampleScenario.node[38].veinsmobility 	stopTime 	382.7
scalar RSUExampleScenario.node[38].veinsmobility 	minSpeed 	0.25711356353783
scalar RSUExampleScenario.node[38].veinsmobility 	maxSpeed 	13.99999596888
scalar RSUExampleScenario.node[38].veinsmobility 	totalDistance 	3413.6196167607
scalar RSUExampleScenario.node[38].veinsmobility 	totalCO2Emission 	690.27578629838
scalar RSUExampleScenario.node[39].veinsmobility 	startTime 	117.1
scalar RSUExampleScenario.node[39].veinsmobility 	totalTime 	268.8
scalar RSUExampleScenario.node[39].veinsmobility 	stopTime 	386
scalar RSUExampleScenario.node[39].veinsmobility 	minSpeed 	0.25801393714244
scalar RSUExampleScenario.node[39].veinsmobility 	maxSpeed 	13.999995462769
scalar RSUExampleScenario.node[39].veinsmobility 	totalDistance 	3410.0966681806
scalar RSUExampleScenario.node[39].veinsmobility 	totalCO2Emission 	691.99691847542
scalar RSUExampleScenario.node[40].veinsmobility 	startTime 	120.1
scalar RSUExampleScenario.node[40].veinsmobility 	totalTime 	269.2
scalar RSUExampleScenario.node[40].veinsmobility 	stopTime 	389.4
scalar RSUExampleScenario.node[40].veinsmobility 	minSpeed 	0.25625355345476
scalar RSUExampleScenario.node[40].veinsmobility 	maxSpeed 	13.999945171394
scalar RSUExampleScenario.node[40].veinsmobility 	totalDistance 	3414.2470680805
scalar RSUExampleScenario.node[40].veinsmobility 	totalCO2Emission 	693.39507962425
scalar RSUExampleScenario.node[41].veinsmobility 	startTime 	123.1
scalar RSUExampleScenario.node[41].veinsmobility 	totalTime 	269.6
scalar RSUExampleScenario.node[41].veinsmobility 	stopTime 	392.8
scalar RSUExampleScenario.node[41].veinsmobility 	minSpeed 	0.25897179427906
scalar RSUExampleScenario.node[41].veinsmobility 	maxSpeed 	13.999974680135
scalar RSUExampleScenario.node[41].veinsmobility 	totalDistance 	3409.5733266746
scalar RSUExampleScenario.node[41].veinsmobility 	totalCO2Emission 	692.12726318751
scalar RSUExampleScenario.node[42].veinsmobility 	startTime 	126.1
scalar RSUExampleScenario.node[42].veinsmobility 	totalTime 	270.1
scalar RSUExampleScenario.node[42].veinsmobility 	stopTime 	396.3
scalar RSUExampleScenario.node[42].veinsmobility 	minSpeed 	0.25243191335024
scalar RSUExampleScenario.node[42].veinsmobility 	maxSpeed 	13.999869997981
scalar RSUExampleScenario.node[42].veinsmobility 	totalDistance 	3414.1732512657
scalar RSUExampleScenario.node[42].veinsmobility 	totalCO2Emission 	690.9976002889
scalar RSUExampleScenario.node[43].veinsmobility 	startTime 	129.1
scalar RSUExampleScenario.node[43].veinsmobility 	totalTime 	270.6
scalar RSUExampleScenario.node[43].veinsmobility 	stopTime 	399.8
scalar RSUExampleScenario.node[43].veinsmobility 	minSpeed 	0.2589433564581
scalar RSUExampleScenario.node[43].veinsmobility 	maxSpeed 	13.999972860545
scalar RSUExampleScenario.node[43].veinsmobility 	totalDistance 	3410.0378044744
scalar RSUExampleScenario.node[43].veinsmobility 	totalCO2Emission 	691.3796516959
scalar RSUExampleScenario.node[44].veinsmobility 	startTime 	132.1
scalar RSUExampleScenario.node[44].veinsmobility 	totalTime 	271.1
scalar RSUExampleScenario.node[44].veinsmobility 	stopTime 	403.3
scalar RSUExampleScenario.node[44].veinsmobility 	minSpeed 	0.25415132679767
scalar RSUExampleScenario.node[44].veinsmobility 	maxSpeed 	13.999930162197
scalar RSUExampleScenario.node[44].veinsmobility 	totalDistance 	3413.9596398901
scalar RSUExampleScenario.node[44].veinsmobility 	totalCO2Emission 	691.52622008064
scalar RSUExampleScenario.node[45].veinsmobility 	startTime 	135.1
scalar RSUExampleScenario.node[45].veinsmobility 	totalTime 	271.7
scalar RSUExampleScenario.node[45].veinsmobility 	stopTime 	406.9
scalar RSUExampleScenario.node[45].veinsmobility 	minSpeed 	0.24872779014823
scalar RSUExampleScenario.node[45].veinsmobility 	maxSpeed 	13.999971441794
scalar RSUExampleScenario.node[45].veinsmobility 	totalDistance 	3409.6856608068
scalar RSUExampleScenario.node[45].veinsmobility 	totalCO2Emission 	692.79102382273
scalar RSUExampleScenario.node[46].veinsmobility 	startTime 	138.1
scalar RSUExampleScenario.node[46].veinsmobility 	totalTime 	272.3
scalar RSUExampleScenario.node[46].veinsmobility 	stopTime 	410.5
scalar RSUExampleScenario.node[46].veinsmobility 	minSpeed 	0.25409005126543
scalar RSUExampleScenario.node[46].veinsmobility 	maxSpeed 	13.999970876509
scalar RSUExampleScenario.node[46].veinsmobility 	totalDistance 	3413.880878234
scalar RSUExampleScenario.node[46].veinsmobility 	totalCO2Emission 	693.07668430932
scalar RSUExampleScenario.node[47].veinsmobility 	startTime 	141.1
scalar RSUExampleScenario.node[47].veinsmobility 	totalTime 	273
scalar RSUExampleScenario.node[47].veinsmobility 	stopTime 	414.2
scalar RSUExampleScenario.node[47].veinsmobility 	minSpeed 	0.25084974634578
scalar RSUExampleScenario.node[47].veinsmobility 	maxSpeed 	13.99999490723
scalar RSUExampleScenario.node[47].veinsmobility 	totalDistance 	3409.9601305742
scalar RSUExampleScenario.node[47].veinsmobility 	totalCO2Emission 	687.9589027662
scalar RSUExampleScenario.node[48].veinsmobility 	startTime 	144.1
scalar RSUExampleScenario.node[48].veinsmobility 	totalTime 	273.6
scalar RSUExampleScenario.node[48].veinsmobility 	stopTime 	417.8
scalar RSUExampleScenario.node[48].veinsmobility 	minSpeed 	0.25495724161644
scalar RSUExampleScenario.node[48].veinsmobility 	maxSpeed 	13.999948320929
scalar RSUExampleScenario.node[48].veinsmobility 	totalDistance 	3413.932511236
scalar RSUExampleScenario.node[48].veinsmobility 	totalCO2Emission 	696.63247358511
scalar RSUExampleScenario.node[49].veinsmobility 	startTime 	147.1
scalar RSUExampleScenario.node[49].veinsmobility 	totalTime 	274.3
scalar RSUExampleScenario.node[49].veinsmobility 	stopTime 	421.5
scalar RSUExampleScenario.node[49].veinsmobility 	minSpeed 	0.24703807338537
scalar RSUExampleScenario.node[49].veinsmobility 	maxSpeed 	13.999950969801
scalar RSUExampleScenario.node[49].veinsmobility 	totalDistance 	3409.7713379411
scalar RSUExampleScenario.node[49].veinsmobility 	totalCO2Emission 	695.14687015394
scalar RSUExampleScenario.node[50].veinsmobility 	startTime 	150.1
scalar RSUExampleScenario.node[50].veinsmobility 	totalTime 	275
scalar RSUExampleScenario.node[50].veinsmobility 	stopTime 	425.2
scalar RSUExampleScenario.node[50].veinsmobility 	minSpeed 	0.24853232044494
scalar RSUExampleScenario.node[50].veinsmobility 	maxSpeed 	13.999958060652
scalar RSUExampleScenario.node[50].veinsmobility 	totalDistance 	3413.6066568713
scalar RSUExampleScenario.node[50].veinsmobility 	totalCO2Emission 	694.9868162529
scalar RSUExampleScenario.node[51].veinsmobility 	startTime 	153.1
scalar RSUExampleScenario.node[51].veinsmobility 	totalTime 	275.6
scalar RSUExampleScenario.node[51].veinsmobility 	stopTime 	428.8
scalar RSUExampleScenario.node[51].veinsmobility 	minSpeed 	0.25220571995154
scalar RSUExampleScenario.node[51].veinsmobility 	maxSpeed 	13.999751223538
scalar RSUExampleScenario.node[51].veinsmobility 	totalDistance 	3409.6645137898
scalar RSUExampleScenario.node[51].veinsmobility 	totalCO2Emission 	695.40660695096
scalar RSUExampleScenario.node[52].veinsmobility 	startTime 	156.1
scalar RSUExampleScenario.node[52].veinsmobility 	totalTime 	276.4
scalar RSUExampleScenario.node[52].veinsmobility 	stopTime 	432.6
scalar RSUExampleScenario.node[52].veinsmobility 	minSpeed 	0.25945029365341
scalar RSUExampleScenario.node[52].veinsmobility 	maxSpeed 	13.999960290252
scalar RSUExampleScenario.node[52].veinsmobility 	totalDistance 	3414.0282924042
scalar RSUExampleScenario.node[52].veinsmobility 	totalCO2Emission 	700.25928791062
scalar RSUExampleScenario.node[53].veinsmobility 	startTime 	159.1
scalar RSUExampleScenario.node[53].veinsmobility 	totalTime 	277.1
scalar RSUExampleScenario.node[53].veinsmobility 	stopTime 	436.3
scalar RSUExampleScenario.node[53].veinsmobility 	minSpeed 	0.25580959951738
scalar RSUExampleScenario.node[53].veinsmobility 	maxSpeed 	13.999997471382
scalar RSUExampleScenario.node[53].veinsmobility 	totalDistance 	3409.6690923995
scalar RSUExampleScenario.node[53].veinsmobility 	totalCO2Emission 	700.4054206308
scalar RSUExampleScenario.node[54].veinsmobility 	startTime 	162.1
scalar RSUExampleScenario.node[54].veinsmobility 	totalTime 	277.8
scalar RSUExampleScenario.node[54].veinsmobility 	stopTime 	440
scalar RSUExampleScenario.node[54].veinsmobility 	minSpeed 	0.25137332014763
scalar RSUExampleScenario.node[54].veinsmobility 	maxSpeed 	13.999982634017
scalar RSUExampleScenario.node[54].veinsmobility 	totalDistance 	3413.893146949
scalar RSUExampleScenario.node[54].veinsmobility 	totalCO2Emission 	702.43476237369
scalar RSUExampleScenario.node[55].veinsmobility 	startTime 	165.1
scalar RSUExampleScenario.node[55].veinsmobility 	totalTime 	278.5
scalar RSUExampleScenario.node[55].veinsmobility 	stopTime 	443.7
scalar RSUExampleScenario.node[55].veinsmobility 	minSpeed 	0.25148284520069
scalar RSUExampleScenario.node[55].veinsmobility 	maxSpeed 	13.999969830781
scalar RSUExampleScenario.node[55].veinsmobility 	totalDistance 	3409.6275980539
scalar RSUExampleScenario.node[55].veinsmobility 	totalCO2Emission 	702.96829111573
scalar RSUExampleScenario.node[56].veinsmobility 	startTime 	168.1
scalar RSUExampleScenario.node[56].veinsmobility 	totalTime 	279.2
scalar RSUExampleScenario.node[56].veinsmobility 	stopTime 	447.4
scalar RSUExampleScenario.node[56].veinsmobility 	minSpeed 	0.25911989513878
scalar RSUExampleScenario.node[56].veinsmobility 	maxSpeed 	13.999981331616
scalar RSUExampleScenario.node[56].veinsmobility 	totalDistance 	3413.8914869181
scalar RSUExampleScenario.node[56].veinsmobility 	totalCO2Emission 	700.0295280736
scalar RSUExampleScenario.node[57].veinsmobility 	startTime 	171.1
scalar RSUExampleScenario.node[57].veinsmobility 	totalTime 	279.9
scalar RSUExampleScenario.node[57].veinsmobility 	stopTime 	451.1
scalar RSUExampleScenario.node[57].veinsmobility 	minSpeed 	0.25563980628992
scalar RSUExampleScenario.node[57].veinsmobility 	maxSpeed 	13.999950096449
scalar RSUExampleScenario.node[57].veinsmobility 	totalDistance 	3409.9952481898
scalar RSUExampleScenario.node[57].veinsmobility 	totalCO2Emission 	699.86515009126
scalar RSUExampleScenario.node[58].veinsmobility 	startTime 	174.1
scalar RSUExampleScenario.node[58].veinsmobility 	totalTime 	280.6
scalar RSUExampleScenario.node[58].veinsmobility 	stopTime 	454.8
scalar RSUExampleScenario.node[58].veinsmobility 	minSpeed 	0.25658853893704
scalar RSUExampleScenario.node[58].veinsmobility 	maxSpeed 	13.999980114964
scalar RSUExampleScenario.node[58].veinsmobility 	totalDistance 	3414.0298111586
scalar RSUExampleScenario.node[58].veinsmobility 	totalCO2Emission 	702.60305304328
scalar RSUExampleScenario.node[59].veinsmobility 	startTime 	177.1
scalar RSUExampleScenario.node[59].veinsmobility 	totalTime 	281.3
scalar RSUExampleScenario.node[59].veinsmobility 	stopTime 	458.5
scalar RSUExampleScenario.node[59].veinsmobility 	minSpeed 	0.25011584634264
scalar RSUExampleScenario.node[59].veinsmobility 	maxSpeed 	13.999741362259
scalar RSUExampleScenario.node[59].veinsmobility 	totalDistance 	3410.118667831
scalar RSUExampleScenario.node[59].veinsmobility 	totalCO2Emission 	700.73220219708
scalar RSUExampleScenario.node[60].veinsmobility 	startTime 	180.1
scalar RSUExampleScenario.node[60].veinsmobility 	totalTime 	282
scalar RSUExampleScenario.node[60].veinsmobility 	stopTime 	462.2
scalar RSUExampleScenario.node[60].veinsmobility 	minSpeed 	0.25800928320386
scalar RSUExampleScenario.node[60].veinsmobility 	maxSpeed 	13.999744303005
scalar RSUExampleScenario.node[60].veinsmobility 	totalDistance 	3413.9202717154
scalar RSUExampleScenario.node[60].veinsmobility 	totalCO2Emission 	699.81553718885
scalar RSUExampleScenario.node[61].veinsmobility 	startTime 	183.1
scalar RSUExampleScenario.node[61].veinsmobility 	totalTime 	282.6
scalar RSUExampleScenario.node[61].veinsmobility 	stopTime 	465.8
scalar RSUExampleScenario.node[61].veinsmobility 	minSpeed 	0.25518645552383
scalar RSUExampleScenario.node[61].veinsmobility 	maxSpeed 	13.999856236733
scalar RSUExampleScenario.node[61].veinsmobility 	totalDistance 	3409.8714986409
scalar RSUExampleScenario.node[61].veinsmobility 	totalCO2Emission 	702.95366430177
scalar RSUExampleScenario.node[62].veinsmobility 	startTime 	186.1
scalar RSUExampleScenario.node[62].veinsmobility 	totalTime 	283.3
scalar RSUExampleScenario.node[62].veinsmobility 	stopTime 	469.5
scalar RSUExampleScenario.node[62].veinsmobility 	minSpeed 	0.25394230389642
scalar RSUExampleScenario.node[62].veinsmobility 	maxSpeed 	13.999975754437
scalar RSUExampleScenario.node[62].veinsmobility 	totalDistance 	3414.1226729937
scalar RSUExampleScenario.node[62].veinsmobility 	totalCO2Emission 	704.67940398305
scalar RSUExampleScenario.node[63].veinsmobility 	startTime 	189.1
scalar RSUExampleScenario.node[63].veinsmobility 	totalTime 	283.9
scalar RSUExampleScenario.node[63].veinsmobility 	stopTime 	473.1
scalar RSUExampleScenario.node[63].veinsmobility 	minSpeed 	0.25090285873297
scalar RSUExampleScenario.node[63].veinsmobility 	maxSpeed 	13.999781412825
scalar RSUExampleScenario.node[63].veinsmobility 	totalDistance 	3409.7613558349
scalar RSUExampleScenario.node[63].veinsmobility 	totalCO2Emission 	706.51388394245
scalar RSUExampleScenario.node[64].veinsmobility 	startTime 	192.1
scalar RSUExampleScenario.node[64].veinsmobility 	totalTime 	284.5
scalar RSUExampleScenario.node[64].veinsmobility 	stopTime 	476.7
scalar RSUExampleScenario.node[64].veinsmobility 	minSpeed 	0.24933028486022
scalar RSUExampleScenario.node[64].veinsmobility 	maxSpeed 	13.999929242141
scalar RSUExampleScenario.node[64].veinsmobility 	totalDistance 	3413.8152761434
scalar RSUExampleScenario.node[64].veinsmobility 	totalCO2Emission 	706.2257399363
scalar RSUExampleScenario.node[65].veinsmobility 	startTime 	195.1
scalar RSUExampleScenario.node[65].veinsmobility 	totalTime 	285.2
scalar RSUExampleScenario.node[65].veinsmobility 	stopTime 	480.4
scalar RSUExampleScenario.node[65].veinsmobility 	minSpeed 	0.25365287332167
scalar RSUExampleScenario.node[65].veinsmobility 	maxSpeed 	13.999972679724
scalar RSUExampleScenario.node[65].veinsmobility 	totalDistance 	3410.0395416434
scalar RSUExampleScenario.node[65].veinsmobility 	totalCO2Emission 	707.08398729846
scalar RSUExampleScenario.node[66].veinsmobility 	startTime 	198.1
scalar RSUExampleScenario.node[66].veinsmobility 	totalTime 	285.8
scalar RSUExampleScenario.node[66].veinsmobility 	stopTime 	484
scalar RSUExampleScenario.node[66].veinsmobility 	minSpeed 	0.25379361876473
scalar RSUExampleScenario.node[66].veinsmobility 	maxSpeed 	13.99992457618
scalar RSUExampleScenario.node[66].veinsmobility 	totalDistance 	3413.7204406451
scalar RSUExampleScenario.node[66].veinsmobility 	totalCO2Emission 	705.93297941113
scalar RSUExampleScenario.node[67].veinsmobility 	startTime 	201.1
scalar RSUExampleScenario.node[67].veinsmobility 	totalTime 	286.4
scalar RSUExampleScenario.node[67].veinsmobility 	stopTime 	487.6
scalar RSUExampleScenario.node[67].veinsmobility 	minSpeed 	0.25457497866964
scalar RSUExampleScenario.node[67].veinsmobility 	maxSpeed 	13.999980528727
scalar RSUExampleScenario.node[67].veinsmobility 	totalDistance 	3409.4084431778
scalar RSUExampleScenario.node[67].veinsmobility 	totalCO2Emission 	706.47518649147
scalar RSUExampleScenario.node[68].veinsmobility 	startTime 	204.1
scalar RSUExampleScenario.node[68].veinsmobility 	totalTime 	287
scalar RSUExampleScenario.node[68].veinsmobility 	stopTime 	491.2
scalar RSUExampleScenario.node[68].veinsmobility 	minSpeed 	0.25723614482186
scalar RSUExampleScenario.node[68].veinsmobility 	maxSpeed 	13.999979355177
scalar RSUExampleScenario.node[68].veinsmobility 	totalDistance 	3409.437995444
scalar RSUExampleScenario.node[68].veinsmobility 	totalCO2Emission 	707.92364167341
scalar RSUExampleScenario.node[69].veinsmobility 	startTime 	207.1
scalar RSUExampleScenario.node[69].veinsmobility 	totalTime 	287.7
scalar RSUExampleScenario.node[69].veinsmobility 	stopTime 	494.9
scalar RSUExampleScenario.node[69].veinsmobility 	minSpeed 	0.25607689822116
scalar RSUExampleScenario.node[69].veinsmobility 	maxSpeed 	13.999934793562
scalar RSUExampleScenario.node[69].veinsmobility 	totalDistance 	3413.9441279735
scalar RSUExampleScenario.node[69].veinsmobility 	totalCO2Emission 	708.97497167033
scalar RSUExampleScenario.node[70].veinsmobility 	startTime 	210.1
scalar RSUExampleScenario.node[70].veinsmobility 	totalTime 	288.4
scalar RSUExampleScenario.node[70].veinsmobility 	stopTime 	498.6
scalar RSUExampleScenario.node[70].veinsmobility 	minSpeed 	0.25745567668229
scalar RSUExampleScenario.node[70].veinsmobility 	maxSpeed 	13.99996125232
scalar RSUExampleScenario.node[70].veinsmobility 	totalDistance 	3410.1397848286
scalar RSUExampleScenario.node[70].veinsmobility 	totalCO2Emission 	710.18797423629
scalar RSUExampleScenario.node[71].veinsmobility 	startTime 	213.1
scalar RSUExampleScenario.node[71].veinsmobility 	totalTime 	289.1
scalar RSUExampleScenario.node[71].veinsmobility 	stopTime 	502.3
scalar RSUExampleScenario.node[71].veinsmobility 	minSpeed 	0.25755683663627
scalar RSUExampleScenario.node[71].veinsmobility 	maxSpeed 	13.999902641396
scalar RSUExampleScenario.node[71].veinsmobility 	totalDistance 	3414.1440147776
scalar RSUExampleScenario.node[71].veinsmobility 	totalCO2Emission 	710.96096042316
scalar RSUExampleScenario.node[72].veinsmobility 	startTime 	216.1
scalar RSUExampleScenario.node[72].veinsmobility 	totalTime 	289.8
scalar RSUExampleScenario.node[72].veinsmobility 	stopTime 	506
scalar RSUExampleScenario.node[72].veinsmobility 	minSpeed 	0.24982070603967
scalar RSUExampleScenario.node[72].veinsmobility 	maxSpeed 	13.999853983312
scalar RSUExampleScenario.node[72].veinsmobility 	totalDistance 	3409.9396136698
scalar RSUExampleScenario.node[72].veinsmobility 	totalCO2Emission 	713.30989642304
scalar RSUExampleScenario.node[73].veinsmobility 	startTime 	219.1
scalar RSUExampleScenario.node[73].veinsmobility 	totalTime 	290.5
scalar RSUExampleScenario.node[73].veinsmobility 	stopTime 	509.7
scalar RSUExampleScenario.node[73].veinsmobility 	minSpeed 	0.24936105290125
scalar RSUExampleScenario.node[73].veinsmobility 	maxSpeed 	13.999930723335
scalar RSUExampleScenario.node[73].veinsmobility 	totalDistance 	3413.6696895014
scalar RSUExampleScenario.node[73].veinsmobility 	totalCO2Emission 	713.7276631745
scalar RSUExampleScenario.node[74].veinsmobility 	startTime 	222.1
scalar RSUExampleScenario.node[74].veinsmobility 	totalTime 	291.1
scalar RSUExampleScenario.node[74].veinsmobility 	stopTime 	513.3
scalar RSUExampleScenario.node[74].veinsmobility 	minSpeed 	0.25767439306574
scalar RSUExampleScenario.node[74].veinsmobility 	maxSpeed 	13.999980318637
scalar RSUExampleScenario.node[74].veinsmobility 	totalDistance 	3409.7696435624
scalar RSUExampleScenario.node[74].veinsmobility 	totalCO2Emission 	708.49081749735
scalar RSUExampleScenario.node[75].veinsmobility 	startTime 	225.1
scalar RSUExampleScenario.node[75].veinsmobility 	totalTime 	291.7
scalar RSUExampleScenario.node[75].veinsmobility 	stopTime 	516.9
scalar RSUExampleScenario.node[75].veinsmobility 	minSpeed 	0.2582989026478
scalar RSUExampleScenario.node[75].veinsmobility 	maxSpeed 	13.999894107913
scalar RSUExampleScenario.node[75].veinsmobility 	totalDistance 	3413.760232787
scalar RSUExampleScenario.node[75].veinsmobility 	totalCO2Emission 	710.83023192048
scalar RSUExampleScenario.node[76].veinsmobility 	startTime 	228.1
scalar RSUExampleScenario.node[76].veinsmobility 	totalTime 	292.4
scalar RSUExampleScenario.node[76].veinsmobility 	stopTime 	520.6
scalar RSUExampleScenario.node[76].veinsmobility 	minSpeed 	0.25564666229696
scalar RSUExampleScenario.node[76].veinsmobility 	maxSpeed 	13.9999871579
scalar RSUExampleScenario.node[76].veinsmobility 	totalDistance 	3409.4781977391
scalar RSUExampleScenario.node[76].veinsmobility 	totalCO2Emission 	716.03054183233
scalar RSUExampleScenario.node[77].veinsmobility 	startTime 	231.1
scalar RSUExampleScenario.node[77].veinsmobility 	totalTime 	293.1
scalar RSUExampleScenario.node[77].veinsmobility 	stopTime 	524.3
scalar RSUExampleScenario.node[77].veinsmobility 	minSpeed 	0.24802407000354
scalar RSUExampleScenario.node[77].veinsmobility 	maxSpeed 	13.999993678865
scalar RSUExampleScenario.node[77].veinsmobility 	totalDistance 	3413.6102018296
scalar RSUExampleScenario.node[77].veinsmobility 	totalCO2Emission 	713.67135008697
scalar RSUExampleScenario.node[78].veinsmobility 	startTime 	234.1
scalar RSUExampleScenario.node[78].veinsmobility 	totalTime 	293.8
scalar RSUExampleScenario.node[78].veinsmobility 	stopTime 	528
scalar RSUExampleScenario.node[78].veinsmobility 	minSpeed 	0.2474896338426
scalar RSUExampleScenario.node[78].veinsmobility 	maxSpeed 	13.999839486401
scalar RSUExampleScenario.node[78].veinsmobility 	totalDistance 	3409.6021850786
scalar RSUExampleScenario.node[78].veinsmobility 	totalCO2Emission 	713.56264646544
scalar RSUExampleScenario.node[79].veinsmobility 	startTime 	237.1
scalar RSUExampleScenario.node[79].veinsmobility 	totalTime 	294.5
scalar RSUExampleScenario.node[79].veinsmobility 	stopTime 	531.7
scalar RSUExampleScenario.node[79].veinsmobility 	minSpeed 	0.25447471512016
scalar RSUExampleScenario.node[79].veinsmobility 	maxSpeed 	13.999993502432
scalar RSUExampleScenario.node[79].veinsmobility 	totalDistance 	3414.2879522563
scalar RSUExampleScenario.node[79].veinsmobility 	totalCO2Emission 	717.76001275079
scalar RSUExampleScenario.node[80].veinsmobility 	startTime 	240.1
scalar RSUExampleScenario.node[80].veinsmobility 	totalTime 	295.1
scalar RSUExampleScenario.node[80].veinsmobility 	stopTime 	535.3
scalar RSUExampleScenario.node[80].veinsmobility 	minSpeed 	0.25291720438492
scalar RSUExampleScenario.node[80].veinsmobility 	maxSpeed 	13.999876016376
scalar RSUExampleScenario.node[80].veinsmobility 	totalDistance 	3409.7519731953
scalar RSUExampleScenario.node[80].veinsmobility 	totalCO2Emission 	716.72004269879
scalar RSUExampleScenario.node[81].veinsmobility 	startTime 	243.1
scalar RSUExampleScenario.node[81].veinsmobility 	totalTime 	295.8
scalar RSUExampleScenario.node[81].veinsmobility 	stopTime 	539
scalar RSUExampleScenario.node[81].veinsmobility 	minSpeed 	0.24735253991093
scalar RSUExampleScenario.node[81].veinsmobility 	maxSpeed 	13.999826146755
scalar RSUExampleScenario.node[81].veinsmobility 	totalDistance 	3414.1156799837
scalar RSUExampleScenario.node[81].veinsmobility 	totalCO2Emission 	721.84461689294
scalar RSUExampleScenario.node[82].veinsmobility 	startTime 	246.1
scalar RSUExampleScenario.node[82].veinsmobility 	totalTime 	296.4
scalar RSUExampleScenario.node[82].veinsmobility 	stopTime 	542.6
scalar RSUExampleScenario.node[82].veinsmobility 	minSpeed 	0.25495664064866
scalar RSUExampleScenario.node[82].veinsmobility 	maxSpeed 	13.999993841858
scalar RSUExampleScenario.node[82].veinsmobility 	totalDistance 	3409.491140358
scalar RSUExampleScenario.node[82].veinsmobility 	totalCO2Emission 	718.09282327541
scalar RSUExampleScenario.node[83].veinsmobility 	startTime 	249.1
scalar RSUExampleScenario.node[83].veinsmobility 	totalTime 	297.1
scalar RSUExampleScenario.node[83].veinsmobility 	stopTime 	546.3
scalar RSUExampleScenario.node[83].veinsmobility 	minSpeed 	0.25642283265013
scalar RSUExampleScenario.node[83].veinsmobility 	maxSpeed 	13.999882232542
scalar RSUExampleScenario.node[83].veinsmobility 	totalDistance 	3413.7831408596
scalar RSUExampleScenario.node[83].veinsmobility 	totalCO2Emission 	718.24245509886
scalar RSUExampleScenario.node[84].veinsmobility 	startTime 	252.1
scalar RSUExampleScenario.node[84].veinsmobility 	totalTime 	297.8
scalar RSUExampleScenario.node[84].veinsmobility 	stopTime 	550
scalar RSUExampleScenario.node[84].veinsmobility 	minSpeed 	0.2546792063443
scalar RSUExampleScenario.node[84].veinsmobility 	maxSpeed 	13.999908394341
scalar RSUExampleScenario.node[84].veinsmobility 	totalDistance 	3409.5417027344
scalar RSUExampleScenario.node[84].veinsmobility 	totalCO2Emission 	716.32268105483
scalar RSUExampleScenario.node[85].veinsmobility 	startTime 	255.1
scalar RSUExampleScenario.node[85].veinsmobility 	totalTime 	298.5
scalar RSUExampleScenario.node[85].veinsmobility 	stopTime 	553.7
scalar RSUExampleScenario.node[85].veinsmobility 	minSpeed 	0.24823831582698
scalar RSUExampleScenario.node[85].veinsmobility 	maxSpeed 	13.999988243431
scalar RSUExampleScenario.node[85].veinsmobility 	totalDistance 	3413.7896519842
scalar RSUExampleScenario.node[85].veinsmobility 	totalCO2Emission 	717.38893359576
scalar RSUExampleScenario.node[86].veinsmobility 	startTime 	258.1
scalar RSUExampleScenario.node[86].veinsmobility 	totalTime 	299.2
scalar RSUExampleScenario.node[86].veinsmobility 	stopTime 	557.4
scalar RSUExampleScenario.node[86].veinsmobility 	minSpeed 	0.24918381838081
scalar RSUExampleScenario.node[86].veinsmobility 	maxSpeed 	13.99985122947
scalar RSUExampleScenario.node[86].veinsmobility 	totalDistance 	3410.1024408808
scalar RSUExampleScenario.node[86].veinsmobility 	totalCO2Emission 	721.55994747084
scalar RSUExampleScenario.node[87].veinsmobility 	startTime 	261.1
scalar RSUExampleScenario.node[87].veinsmobility 	totalTime 	300
scalar RSUExampleScenario.node[87].veinsmobility 	stopTime 	561.2
scalar RSUExampleScenario.node[87].veinsmobility 	minSpeed 	0.25936753606144
scalar RSUExampleScenario.node[87].veinsmobility 	maxSpeed 	13.99994449999
scalar RSUExampleScenario.node[87].veinsmobility 	totalDistance 	3414.1252516476
scalar RSUExampleScenario.node[87].veinsmobility 	totalCO2Emission 	720.74095153393
scalar RSUExampleScenario.node[88].veinsmobility 	startTime 	264.1
scalar RSUExampleScenario.node[88].veinsmobility 	totalTime 	300.7
scalar RSUExampleScenario.node[88].veinsmobility 	stopTime 	564.9
scalar RSUExampleScenario.node[88].veinsmobility 	minSpeed 	0.25165511114383
scalar RSUExampleScenario.node[88].veinsmobility 	maxSpeed 	13.9999927691
scalar RSUExampleScenario.node[88].veinsmobility 	totalDistance 	3409.62656674
scalar RSUExampleScenario.node[88].veinsmobility 	totalCO2Emission 	725.30009291932
scalar RSUExampleScenario.node[89].veinsmobility 	startTime 	267.1
scalar RSUExampleScenario.node[89].veinsmobility 	totalTime 	301.5
scalar RSUExampleScenario.node[89].veinsmobility 	stopTime 	568.7
scalar RSUExampleScenario.node[89].veinsmobility 	minSpeed 	0.25350062652607
scalar RSUExampleScenario.node[89].veinsmobility 	maxSpeed 	13.999973276609
scalar RSUExampleScenario.node[89].veinsmobility 	totalDistance 	3414.253763547
scalar RSUExampleScenario.node[89].veinsmobility 	totalCO2Emission 	723.38890859988
scalar RSUExampleScenario.node[90].veinsmobility 	startTime 	270.1
scalar RSUExampleScenario.node[90].veinsmobility 	totalTime 	302.3
scalar RSUExampleScenario.node[90].veinsmobility 	stopTime 	572.5
scalar RSUExampleScenario.node[90].veinsmobility 	minSpeed 	0.24786711018928
scalar RSUExampleScenario.node[90].veinsmobility 	maxSpeed 	13.999983611885
scalar RSUExampleScenario.node[90].veinsmobility 	totalDistance 	3409.9083830183
scalar RSUExampleScenario.node[90].veinsmobility 	totalCO2Emission 	724.32714481108
scalar RSUExampleScenario.node[91].veinsmobility 	startTime 	273.1
scalar RSUExampleScenario.node[91].veinsmobility 	totalTime 	302.9
scalar RSUExampleScenario.node[91].veinsmobility 	stopTime 	576.1
scalar RSUExampleScenario.node[91].veinsmobility 	minSpeed 	0.24736860484001
scalar RSUExampleScenario.node[91].veinsmobility 	maxSpeed 	13.999949695216
scalar RSUExampleScenario.node[91].veinsmobility 	totalDistance 	3413.8908152488
scalar RSUExampleScenario.node[91].veinsmobility 	totalCO2Emission 	724.75961131137
scalar RSUExampleScenario.node[92].veinsmobility 	startTime 	276.1
scalar RSUExampleScenario.node[92].veinsmobility 	totalTime 	303.6
scalar RSUExampleScenario.node[92].veinsmobility 	stopTime 	579.8
scalar RSUExampleScenario.node[92].veinsmobility 	minSpeed 	0.24721231966279
scalar RSUExampleScenario.node[92].veinsmobility 	maxSpeed 	13.999556280077
scalar RSUExampleScenario.node[92].veinsmobility 	totalDistance 	3409.9747512244
scalar RSUExampleScenario.node[92].veinsmobility 	totalCO2Emission 	725.66604654878
scalar RSUExampleScenario.node[93].veinsmobility 	startTime 	279.1
scalar RSUExampleScenario.node[93].veinsmobility 	totalTime 	304.3
scalar RSUExampleScenario.node[93].veinsmobility 	stopTime 	583.5
scalar RSUExampleScenario.node[93].veinsmobility 	minSpeed 	0.24834967989009
scalar RSUExampleScenario.node[93].veinsmobility 	maxSpeed 	13.999908512749
scalar RSUExampleScenario.node[93].veinsmobility 	totalDistance 	3413.7997063544
scalar RSUExampleScenario.node[93].veinsmobility 	totalCO2Emission 	724.04323869453
scalar RSUExampleScenario.node[94].veinsmobility 	startTime 	282.1
scalar RSUExampleScenario.node[94].veinsmobility 	totalTime 	304.9
scalar RSUExampleScenario.node[94].veinsmobility 	stopTime 	587.1
scalar RSUExampleScenario.node[94].veinsmobility 	minSpeed 	0.24941357337986
scalar RSUExampleScenario.node[94].veinsmobility 	maxSpeed 	13.999993370101
scalar RSUExampleScenario.node[94].veinsmobility 	totalDistance 	3409.7008995396
scalar RSUExampleScenario.node[94].veinsmobility 	totalCO2Emission 	727.92130288889
scalar RSUExampleScenario.node[95].veinsmobility 	startTime 	285.1
scalar RSUExampleScenario.node[95].veinsmobility 	totalTime 	305.6
scalar RSUExampleScenario.node[95].veinsmobility 	stopTime 	590.8
scalar RSUExampleScenario.node[95].veinsmobility 	minSpeed 	0.25261486132792
scalar RSUExampleScenario.node[95].veinsmobility 	maxSpeed 	13.999798024984
scalar RSUExampleScenario.node[95].veinsmobility 	totalDistance 	3413.8568069184
scalar RSUExampleScenario.node[95].veinsmobility 	totalCO2Emission 	727.4612912115
scalar RSUExampleScenario.node[96].veinsmobility 	startTime 	288.1
scalar RSUExampleScenario.node[96].veinsmobility 	totalTime 	306.3
scalar RSUExampleScenario.node[96].veinsmobility 	stopTime 	594.5
scalar RSUExampleScenario.node[96].veinsmobility 	minSpeed 	0.25016205323767
scalar RSUExampleScenario.node[96].veinsmobility 	maxSpeed 	13.999877368871
scalar RSUExampleScenario.node[96].veinsmobility 	totalDistance 	3410.0891469779
scalar RSUExampleScenario.node[96].veinsmobility 	totalCO2Emission 	724.91384031014
scalar RSUExampleScenario.node[97].veinsmobility 	startTime 	291.1
scalar RSUExampleScenario.node[97].veinsmobility 	totalTime 	307
scalar RSUExampleScenario.node[97].veinsmobility 	stopTime 	598.2
scalar RSUExampleScenario.node[97].veinsmobility 	minSpeed 	0.25381668915809
scalar RSUExampleScenario.node[97].veinsmobility 	maxSpeed 	13.999882155238
scalar RSUExampleScenario.node[97].veinsmobility 	totalDistance 	3413.8144104962
scalar RSUExampleScenario.node[97].veinsmobility 	totalCO2Emission 	731.66675558232
scalar RSUExampleScenario.node[98].veinsmobility 	startTime 	294.1
scalar RSUExampleScenario.node[98].veinsmobility 	totalTime 	307.7
scalar RSUExampleScenario.node[98].veinsmobility 	stopTime 	601.9
scalar RSUExampleScenario.node[98].veinsmobility 	minSpeed 	0.24734372805036
scalar RSUExampleScenario.node[98].veinsmobility 	maxSpeed 	13.999999534599
scalar RSUExampleScenario.node[98].veinsmobility 	totalDistance 	3410.0294761949
scalar RSUExampleScenario.node[98].veinsmobility 	totalCO2Emission 	727.18265839698
scalar RSUExampleScenario.node[99].veinsmobility 	startTime 	297.1
scalar RSUExampleScenario.node[99].veinsmobility 	totalTime 	308.3
scalar RSUExampleScenario.node[99].veinsmobility 	stopTime 	605.5
scalar RSUExampleScenario.node[99].veinsmobility 	minSpeed 	0.25781568981893
scalar RSUExampleScenario.node[99].veinsmobility 	maxSpeed 	13.999958763111
scalar RSUExampleScenario.node[99].veinsmobility 	totalDistance 	3413.5736862684
scalar RSUExampleScenario.node[99].veinsmobility 	totalCO2Emission 	730.0544358951
scalar RSUExampleScenario.node[100].veinsmobility 	startTime 	300.1
scalar RSUExampleScenario.node[100].veinsmobility 	totalTime 	309
scalar RSUExampleScenario.node[100].veinsmobility 	stopTime 	609.2
scalar RSUExampleScenario.node[100].veinsmobility 	minSpeed 	0.24845114751812
scalar RSUExampleScenario.node[100].veinsmobility 	maxSpeed 	13.999980435744
scalar RSUExampleScenario.node[100].veinsmobility 	totalDistance 	3409.9287935016
scalar RSUExampleScenario.node[100].veinsmobility 	totalCO2Emission 	728.53161008099
scalar RSUExampleScenario.node[101].veinsmobility 	startTime 	303.1
scalar RSUExampleScenario.node[101].veinsmobility 	totalTime 	309.7
scalar RSUExampleScenario.node[101].veinsmobility 	stopTime 	612.9
scalar RSUExampleScenario.node[101].veinsmobility 	minSpeed 	0.24704616192286
scalar RSUExampleScenario.node[101].veinsmobility 	maxSpeed 	13.999916992113
scalar RSUExampleScenario.node[101].veinsmobility 	totalDistance 	3413.5413870264
scalar RSUExampleScenario.node[101].veinsmobility 	totalCO2Emission 	730.73126825654
scalar RSUExampleScenario.node[102].veinsmobility 	startTime 	306.1
scalar RSUExampleScenario.node[102].veinsmobility 	totalTime 	310.3
scalar RSUExampleScenario.node[102].veinsmobility 	stopTime 	616.5
scalar RSUExampleScenario.node[102].veinsmobility 	minSpeed 	0.25335412621312
scalar RSUExampleScenario.node[102].veinsmobility 	maxSpeed 	13.99986442059
scalar RSUExampleScenario.node[102].veinsmobility 	totalDistance 	3410.0634417492
scalar RSUExampleScenario.node[102].veinsmobility 	totalCO2Emission 	734.2160545907
scalar RSUExampleScenario.node[103].veinsmobility 	startTime 	309.1
scalar RSUExampleScenario.node[103].veinsmobility 	totalTime 	310.9
scalar RSUExampleScenario.node[103].veinsmobility 	stopTime 	620.1
scalar RSUExampleScenario.node[103].veinsmobility 	minSpeed 	0.25897545408085
scalar RSUExampleScenario.node[103].veinsmobility 	maxSpeed 	13.999868535886
scalar RSUExampleScenario.node[103].veinsmobility 	totalDistance 	3413.6273389513
scalar RSUExampleScenario.node[103].veinsmobility 	totalCO2Emission 	728.13468605349
scalar RSUExampleScenario.node[104].veinsmobility 	startTime 	312.1
scalar RSUExampleScenario.node[104].veinsmobility 	totalTime 	311.6
scalar RSUExampleScenario.node[104].veinsmobility 	stopTime 	623.8
scalar RSUExampleScenario.node[104].veinsmobility 	minSpeed 	0.24862171462225
scalar RSUExampleScenario.node[104].veinsmobility 	maxSpeed 	13.999988681015
scalar RSUExampleScenario.node[104].veinsmobility 	totalDistance 	3409.9806004052
scalar RSUExampleScenario.node[104].veinsmobility 	totalCO2Emission 	731.36892112937
scalar RSUExampleScenario.node[105].veinsmobility 	startTime 	315.1
scalar RSUExampleScenario.node[105].veinsmobility 	totalTime 	312.3
scalar RSUExampleScenario.node[105].veinsmobility 	stopTime 	627.5
scalar RSUExampleScenario.node[105].veinsmobility 	minSpeed 	0.25803039934789
scalar RSUExampleScenario.node[105].veinsmobility 	maxSpeed 	13.999942376721
scalar RSUExampleScenario.node[105].veinsmobility 	totalDistance 	3413.862537045
scalar RSUExampleScenario.node[105].veinsmobility 	totalCO2Emission 	732.14930692026
scalar RSUExampleScenario.node[106].veinsmobility 	startTime 	318.1
scalar RSUExampleScenario.node[106].veinsmobility 	totalTime 	313
scalar RSUExampleScenario.node[106].veinsmobility 	stopTime 	631.2
scalar RSUExampleScenario.node[106].veinsmobility 	minSpeed 	0.24903694524197
scalar RSUExampleScenario.node[106].veinsmobility 	maxSpeed 	13.99994810303
scalar RSUExampleScenario.node[106].veinsmobility 	totalDistance 	3409.7730716823
scalar RSUExampleScenario.node[106].veinsmobility 	totalCO2Emission 	734.32189328648
scalar RSUExampleScenario.node[107].veinsmobility 	startTime 	321.1
scalar RSUExampleScenario.node[107].veinsmobility 	totalTime 	313.7
scalar RSUExampleScenario.node[107].veinsmobility 	stopTime 	634.9
scalar RSUExampleScenario.node[107].veinsmobility 	minSpeed 	0.24728768510488
scalar RSUExampleScenario.node[107].veinsmobility 	maxSpeed 	13.999940552318
scalar RSUExampleScenario.node[107].veinsmobility 	totalDistance 	3413.6210728002
scalar RSUExampleScenario.node[107].veinsmobility 	totalCO2Emission 	740.76863633382
scalar RSUExampleScenario.node[108].veinsmobility 	startTime 	324.1
scalar RSUExampleScenario.node[108].veinsmobility 	totalTime 	314.3
scalar RSUExampleScenario.node[108].veinsmobility 	stopTime 	638.5
scalar RSUExampleScenario.node[108].veinsmobility 	minSpeed 	0.25451232086518
scalar RSUExampleScenario.node[108].veinsmobility 	maxSpeed 	13.999972918327
scalar RSUExampleScenario.node[108].veinsmobility 	totalDistance 	3409.5078509697
scalar RSUExampleScenario.node[108].veinsmobility 	totalCO2Emission 	734.09923790446
scalar RSUExampleScenario.node[109].veinsmobility 	startTime 	327.1
scalar RSUExampleScenario.node[109].veinsmobility 	totalTime 	314.9
scalar RSUExampleScenario.node[109].veinsmobility 	stopTime 	642.1
scalar RSUExampleScenario.node[109].veinsmobility 	minSpeed 	0.24812257093634
scalar RSUExampleScenario.node[109].veinsmobility 	maxSpeed 	13.999848199433
scalar RSUExampleScenario.node[109].veinsmobility 	totalDistance 	3413.5264813349
scalar RSUExampleScenario.node[109].veinsmobility 	totalCO2Emission 	735.25971427426
scalar RSUExampleScenario.node[110].veinsmobility 	startTime 	330.1
scalar RSUExampleScenario.node[110].veinsmobility 	totalTime 	315.5
scalar RSUExampleScenario.node[110].veinsmobility 	stopTime 	645.7
scalar RSUExampleScenario.node[110].veinsmobility 	minSpeed 	0.25292094598897
scalar RSUExampleScenario.node[110].veinsmobility 	maxSpeed 	13.999846274178
scalar RSUExampleScenario.node[110].veinsmobility 	totalDistance 	3409.9036850067
scalar RSUExampleScenario.node[110].veinsmobility 	totalCO2Emission 	739.37533112413
scalar RSUExampleScenario.node[111].veinsmobility 	startTime 	333.1
scalar RSUExampleScenario.node[111].veinsmobility 	totalTime 	316.1
scalar RSUExampleScenario.node[111].veinsmobility 	stopTime 	649.3
scalar RSUExampleScenario.node[111].veinsmobility 	minSpeed 	0.25936622610851
scalar RSUExampleScenario.node[111].veinsmobility 	maxSpeed 	13.999979107857
scalar RSUExampleScenario.node[111].veinsmobility 	totalDistance 	3413.9419590276
scalar RSUExampleScenario.node[111].veinsmobility 	totalCO2Emission 	739.5923049737
scalar RSUExampleScenario.node[112].veinsmobility 	startTime 	336.1
scalar RSUExampleScenario.node[112].veinsmobility 	totalTime 	316.8
scalar RSUExampleScenario.node[112].veinsmobility 	stopTime 	653
scalar RSUExampleScenario.node[112].veinsmobility 	minSpeed 	0.25968226274336
scalar RSUExampleScenario.node[112].veinsmobility 	maxSpeed 	13.999937009269
scalar RSUExampleScenario.node[112].veinsmobility 	totalDistance 	3409.659252486
scalar RSUExampleScenario.node[112].veinsmobility 	totalCO2Emission 	737.80727403827
scalar RSUExampleScenario.node[113].veinsmobility 	startTime 	339.1
scalar RSUExampleScenario.node[113].veinsmobility 	totalTime 	317.5
scalar RSUExampleScenario.node[113].veinsmobility 	stopTime 	656.7
scalar RSUExampleScenario.node[113].veinsmobility 	minSpeed 	0.25278508394607
scalar RSUExampleScenario.node[113].veinsmobility 	maxSpeed 	13.999882841897
scalar RSUExampleScenario.node[113].veinsmobility 	totalDistance 	3413.9571304103
scalar RSUExampleScenario.node[113].veinsmobility 	totalCO2Emission 	736.79496729034
scalar RSUExampleScenario.node[114].veinsmobility 	startTime 	342.1
scalar RSUExampleScenario.node[114].veinsmobility 	totalTime 	318.3
scalar RSUExampleScenario.node[114].veinsmobility 	stopTime 	660.5
scalar RSUExampleScenario.node[114].veinsmobility 	minSpeed 	0.24794722674531
scalar RSUExampleScenario.node[114].veinsmobility 	maxSpeed 	13.999905143983
scalar RSUExampleScenario.node[114].veinsmobility 	totalDistance 	3410.0573137922
scalar RSUExampleScenario.node[114].veinsmobility 	totalCO2Emission 	734.86314994643
scalar RSUExampleScenario.node[115].veinsmobility 	startTime 	345.1
scalar RSUExampleScenario.node[115].veinsmobility 	totalTime 	319
scalar RSUExampleScenario.node[115].veinsmobility 	stopTime 	664.2
scalar RSUExampleScenario.node[115].veinsmobility 	minSpeed 	0.24956665311707
scalar RSUExampleScenario.node[115].veinsmobility 	maxSpeed 	13.999915982555
scalar RSUExampleScenario.node[115].veinsmobility 	totalDistance 	3413.7495017331
scalar RSUExampleScenario.node[115].veinsmobility 	totalCO2Emission 	738.99633660371
scalar RSUExampleScenario.node[116].veinsmobility 	startTime 	348.1
scalar RSUExampleScenario.node[116].veinsmobility 	totalTime 	319.7
scalar RSUExampleScenario.node[116].veinsmobility 	stopTime 	667.9
scalar RSUExampleScenario.node[116].veinsmobility 	minSpeed 	0.25798116563936
scalar RSUExampleScenario.node[116].veinsmobility 	maxSpeed 	13.999980242634
scalar RSUExampleScenario.node[116].veinsmobility 	totalDistance 	3409.6824681068
scalar RSUExampleScenario.node[116].veinsmobility 	totalCO2Emission 	740.22725767088
scalar RSUExampleScenario.node[117].veinsmobility 	startTime 	351.1
scalar RSUExampleScenario.node[117].veinsmobility 	totalTime 	320.4
scalar RSUExampleScenario.node[117].veinsmobility 	stopTime 	671.6
scalar RSUExampleScenario.node[117].veinsmobility 	minSpeed 	0.25912921044067
scalar RSUExampleScenario.node[117].veinsmobility 	maxSpeed 	13.999996440273
scalar RSUExampleScenario.node[117].veinsmobility 	totalDistance 	3413.9548482543
scalar RSUExampleScenario.node[117].veinsmobility 	totalCO2Emission 	740.18223326347
scalar RSUExampleScenario.node[118].veinsmobility 	startTime 	354.1
scalar RSUExampleScenario.node[118].veinsmobility 	totalTime 	321.1
scalar RSUExampleScenario.node[118].veinsmobility 	stopTime 	675.3
scalar RSUExampleScenario.node[118].veinsmobility 	minSpeed 	0.24735222282354
scalar RSUExampleScenario.node[118].veinsmobility 	maxSpeed 	13.999849891716
scalar RSUExampleScenario.node[118].veinsmobility 	totalDistance 	3409.9979458011
scalar RSUExampleScenario.node[118].veinsmobility 	totalCO2Emission 	744.52417493081
scalar RSUExampleScenario.node[119].veinsmobility 	startTime 	357.1
scalar RSUExampleScenario.node[119].veinsmobility 	totalTime 	321.8
scalar RSUExampleScenario.node[119].veinsmobility 	stopTime 	679
scalar RSUExampleScenario.node[119].veinsmobility 	minSpeed 	0.25881015860918
scalar RSUExampleScenario.node[119].veinsmobility 	maxSpeed 	13.999986683691
scalar RSUExampleScenario.node[119].veinsmobility 	totalDistance 	3414.2205110393
scalar RSUExampleScenario.node[119].veinsmobility 	totalCO2Emission 	740.56283583982
scalar RSUExampleScenario.node[120].veinsmobility 	startTime 	360.1
scalar RSUExampleScenario.node[120].veinsmobility 	totalTime 	322.5
scalar RSUExampleScenario.node[120].veinsmobility 	stopTime 	682.7
scalar RSUExampleScenario.node[120].veinsmobility 	minSpeed 	0.25810307689314
scalar RSUExampleScenario.node[120].veinsmobility 	maxSpeed 	13.999996968661
scalar RSUExampleScenario.node[120].veinsmobility 	totalDistance 	3409.7468820208
scalar RSUExampleScenario.node[120].veinsmobility 	totalCO2Emission 	745.10500772362
scalar RSUExampleScenario.node[121].veinsmobility 	startTime 	363.1
scalar RSUExampleScenario.node[121].veinsmobility 	totalTime 	323.2
scalar RSUExampleScenario.node[121].veinsmobility 	stopTime 	686.4
scalar RSUExampleScenario.node[121].veinsmobility 	minSpeed 	0.25046024354547
scalar RSUExampleScenario.node[121].veinsmobility 	maxSpeed 	13.999987870711
scalar RSUExampleScenario.node[121].veinsmobility 	totalDistance 	3413.9823906438
scalar RSUExampleScenario.node[121].veinsmobility 	totalCO2Emission 	745.52027631773
scalar RSUExampleScenario.node[122].veinsmobility 	startTime 	366.1
scalar RSUExampleScenario.node[122].veinsmobility 	totalTime 	323.8
scalar RSUExampleScenario.node[122].veinsmobility 	stopTime 	690
scalar RSUExampleScenario.node[122].veinsmobility 	minSpeed 	0.25294136741315
scalar RSUExampleScenario.node[122].veinsmobility 	maxSpeed 	13.999897362448
scalar RSUExampleScenario.node[122].veinsmobility 	totalDistance 	3409.8243903787
scalar RSUExampleScenario.node[122].veinsmobility 	totalCO2Emission 	748.60821293217
scalar RSUExampleScenario.node[123].veinsmobility 	startTime 	369.1
scalar RSUExampleScenario.node[123].veinsmobility 	totalTime 	324.5
scalar RSUExampleScenario.node[123].veinsmobility 	stopTime 	693.7
scalar RSUExampleScenario.node[123].veinsmobility 	minSpeed 	0.25102084778575
scalar RSUExampleScenario.node[123].veinsmobility 	maxSpeed 	13.999936130589
scalar RSUExampleScenario.node[123].veinsmobility 	totalDistance 	3414.1563063109
scalar RSUExampleScenario.node[123].veinsmobility 	totalCO2Emission 	748.32972891033
scalar RSUExampleScenario.node[124].veinsmobility 	startTime 	372.1
scalar RSUExampleScenario.node[124].veinsmobility 	totalTime 	325.2
scalar RSUExampleScenario.node[124].veinsmobility 	stopTime 	697.4
scalar RSUExampleScenario.node[124].veinsmobility 	minSpeed 	0.25296300192364
scalar RSUExampleScenario.node[124].veinsmobility 	maxSpeed 	13.999964220973
scalar RSUExampleScenario.node[124].veinsmobility 	totalDistance 	3409.5511538125
scalar RSUExampleScenario.node[124].veinsmobility 	totalCO2Emission 	747.62828425263
scalar RSUExampleScenario.node[125].veinsmobility 	startTime 	375.1
scalar RSUExampleScenario.node[125].veinsmobility 	totalTime 	325.9
scalar RSUExampleScenario.node[125].veinsmobility 	stopTime 	701.1
scalar RSUExampleScenario.node[125].veinsmobility 	minSpeed 	0.24966573552508
scalar RSUExampleScenario.node[125].veinsmobility 	maxSpeed 	13.999954495174
scalar RSUExampleScenario.node[125].veinsmobility 	totalDistance 	3414.1378378039
scalar RSUExampleScenario.node[125].veinsmobility 	totalCO2Emission 	745.03482743027
scalar RSUExampleScenario.node[126].veinsmobility 	startTime 	378.1
scalar RSUExampleScenario.node[126].veinsmobility 	totalTime 	326.6
scalar RSUExampleScenario.node[126].veinsmobility 	stopTime 	704.8
scalar RSUExampleScenario.node[126].veinsmobility 	minSpeed 	0.25136091344943
scalar RSUExampleScenario.node[126].veinsmobility 	maxSpeed 	13.999946565144
scalar RSUExampleScenario.node[126].veinsmobility 	totalDistance 	3409.8583685768
scalar RSUExampleScenario.node[126].veinsmobility 	totalCO2Emission 	749.0468607565
scalar RSUExampleScenario.node[127].veinsmobility 	startTime 	381.1
scalar RSUExampleScenario.node[127].veinsmobility 	totalTime 	327.3
scalar RSUExampleScenario.node[127].veinsmobility 	stopTime 	708.5
scalar RSUExampleScenario.node[127].veinsmobility 	minSpeed 	0.24955432046345
scalar RSUExampleScenario.node[127].veinsmobility 	maxSpeed 	13.999936489658
scalar RSUExampleScenario.node[127].veinsmobility 	totalDistance 	3414.294499578
scalar RSUExampleScenario.node[127].veinsmobility 	totalCO2Emission 	749.1868635538
scalar RSUExampleScenario.node[128].veinsmobility 	startTime 	384.1
scalar RSUExampleScenario.node[128].veinsmobility 	totalTime 	328
scalar RSUExampleScenario.node[128].veinsmobility 	stopTime 	712.2
scalar RSUExampleScenario.node[128].veinsmobility 	minSpeed 	0.2555639190278
scalar RSUExampleScenario.node[128].veinsmobility 	maxSpeed 	13.9998991021
scalar RSUExampleScenario.node[128].veinsmobility 	totalDistance 	3409.8806544787
scalar RSUExampleScenario.node[128].veinsmobility 	totalCO2Emission 	754.94772671761
scalar RSUExampleScenario.node[129].veinsmobility 	startTime 	387.1
scalar RSUExampleScenario.node[129].veinsmobility 	totalTime 	328.7
scalar RSUExampleScenario.node[129].veinsmobility 	stopTime 	715.9
scalar RSUExampleScenario.node[129].veinsmobility 	minSpeed 	0.25548545635073
scalar RSUExampleScenario.node[129].veinsmobility 	maxSpeed 	13.999947520583
scalar RSUExampleScenario.node[129].veinsmobility 	totalDistance 	3409.717836533
scalar RSUExampleScenario.node[129].veinsmobility 	totalCO2Emission 	749.86017880797
scalar RSUExampleScenario.node[130].veinsmobility 	startTime 	390.1
scalar RSUExampleScenario.node[130].veinsmobility 	totalTime 	329.4
scalar RSUExampleScenario.node[130].veinsmobility 	stopTime 	719.6
scalar RSUExampleScenario.node[130].veinsmobility 	minSpeed 	0.25000868491037
scalar RSUExampleScenario.node[130].veinsmobility 	maxSpeed 	13.999988143092
scalar RSUExampleScenario.node[130].veinsmobility 	totalDistance 	3413.6734241619
scalar RSUExampleScenario.node[130].veinsmobility 	totalCO2Emission 	751.87374263026
scalar RSUExampleScenario.node[131].veinsmobility 	startTime 	393.1
scalar RSUExampleScenario.node[131].veinsmobility 	totalTime 	330
scalar RSUExampleScenario.node[131].veinsmobility 	stopTime 	723.2
scalar RSUExampleScenario.node[131].veinsmobility 	minSpeed 	0.25339848245704
scalar RSUExampleScenario.node[131].veinsmobility 	maxSpeed 	13.999978013791
scalar RSUExampleScenario.node[131].veinsmobility 	totalDistance 	3409.4970538333
scalar RSUExampleScenario.node[131].veinsmobility 	totalCO2Emission 	747.36764129336
scalar RSUExampleScenario.node[132].veinsmobility 	startTime 	396.1
scalar RSUExampleScenario.node[132].veinsmobility 	totalTime 	330.7
scalar RSUExampleScenario.node[132].veinsmobility 	stopTime 	726.9
scalar RSUExampleScenario.node[132].veinsmobility 	minSpeed 	0.24939386627101
scalar RSUExampleScenario.node[132].veinsmobility 	maxSpeed 	13.999869006341
scalar RSUExampleScenario.node[132].veinsmobility 	totalDistance 	3413.8068871585
scalar RSUExampleScenario.node[132].veinsmobility 	totalCO2Emission 	750.92217652576
scalar RSUExampleScenario.node[133].veinsmobility 	startTime 	399.1
scalar RSUExampleScenario.node[133].veinsmobility 	totalTime 	331.3
scalar RSUExampleScenario.node[133].veinsmobility 	stopTime 	730.5
scalar RSUExampleScenario.node[133].veinsmobility 	minSpeed 	0.24774443468102
scalar RSUExampleScenario.node[133].veinsmobility 	maxSpeed 	13.999920100544
scalar RSUExampleScenario.node[133].veinsmobility 	totalDistance 	3409.4671079846
scalar RSUExampleScenario.node[133].veinsmobility 	totalCO2Emission 	756.87132415422
scalar RSUExampleScenario.node[134].veinsmobility 	startTime 	402.1
scalar RSUExampleScenario.node[134].veinsmobility 	totalTime 	332
scalar RSUExampleScenario.node[134].veinsmobility 	stopTime 	734.2
scalar RSUExampleScenario.node[134].veinsmobility 	minSpeed 	0.25724545868905
scalar RSUExampleScenario.node[134].veinsmobility 	maxSpeed 	13.999972244774
scalar RSUExampleScenario.node[134].veinsmobility 	totalDistance 	3414.3420441296
scalar RSUExampleScenario.node[134].veinsmobility 	totalCO2Emission 	757.27023698503
scalar RSUExampleScenario.node[135].veinsmobility 	startTime 	405.1
scalar RSUExampleScenario.node[135].veinsmobility 	totalTime 	332.7
scalar RSUExampleScenario.node[135].veinsmobility 	stopTime 	737.9
scalar RSUExampleScenario.node[135].veinsmobility 	minSpeed 	0.25634387253691
scalar RSUExampleScenario.node[135].veinsmobility 	maxSpeed 	13.999979433813
scalar RSUExampleScenario.node[135].veinsmobility 	totalDistance 	3409.518398038
scalar RSUExampleScenario.node[135].veinsmobility 	totalCO2Emission 	757.3637394084
scalar RSUExampleScenario.node[136].veinsmobility 	startTime 	408.1
scalar RSUExampleScenario.node[136].veinsmobility 	totalTime 	333.4
scalar RSUExampleScenario.node[136].veinsmobility 	stopTime 	741.6
scalar RSUExampleScenario.node[136].veinsmobility 	minSpeed 	0.25788522347109
scalar RSUExampleScenario.node[136].veinsmobility 	maxSpeed 	13.999996889087
scalar RSUExampleScenario.node[136].veinsmobility 	totalDistance 	3413.9176054074
scalar RSUExampleScenario.node[136].veinsmobility 	totalCO2Emission 	757.23552823648
scalar RSUExampleScenario.node[137].veinsmobility 	startTime 	411.1
scalar RSUExampleScenario.node[137].veinsmobility 	totalTime 	334.1
scalar RSUExampleScenario.node[137].veinsmobility 	stopTime 	745.3
scalar RSUExampleScenario.node[137].veinsmobility 	minSpeed 	0.24918748578895
scalar RSUExampleScenario.node[137].veinsmobility 	maxSpeed 	13.999942513956
scalar RSUExampleScenario.node[137].veinsmobility 	totalDistance 	3409.9722439905
scalar RSUExampleScenario.node[137].veinsmobility 	totalCO2Emission 	756.56865244234
scalar RSUExampleScenario.node[138].veinsmobility 	startTime 	414.1
scalar RSUExampleScenario.node[138].veinsmobility 	totalTime 	334.8
scalar RSUExampleScenario.node[138].veinsmobility 	stopTime 	749
scalar RSUExampleScenario.node[138].veinsmobility 	minSpeed 	0.25024206070183
scalar RSUExampleScenario.node[138].veinsmobility 	maxSpeed 	13.999955457847
scalar RSUExampleScenario.node[138].veinsmobility 	totalDistance 	3413.8862852031
scalar RSUExampleScenario.node[138].veinsmobility 	totalCO2Emission 	755.73598423461
scalar RSUExampleScenario.node[139].veinsmobility 	startTime 	417.1
scalar RSUExampleScenario.node[139].veinsmobility 	totalTime 	335.5
scalar RSUExampleScenario.node[139].veinsmobility 	stopTime 	752.7
scalar RSUExampleScenario.node[139].veinsmobility 	minSpeed 	0.25842216022452
scalar RSUExampleScenario.node[139].veinsmobility 	maxSpeed 	13.999950507185
scalar RSUExampleScenario.node[139].veinsmobility 	totalDistance 	3409.6961482466
scalar RSUExampleScenario.node[139].veinsmobility 	totalCO2Emission 	759.42326220606
scalar RSUExampleScenario.node[140].veinsmobility 	startTime 	420.1
scalar RSUExampleScenario.node[140].veinsmobility 	totalTime 	336.3
scalar RSUExampleScenario.node[140].veinsmobility 	stopTime 	756.5
scalar RSUExampleScenario.node[140].veinsmobility 	minSpeed 	0.25967147790361
scalar RSUExampleScenario.node[140].veinsmobility 	maxSpeed 	13.999995914428
scalar RSUExampleScenario.node[140].veinsmobility 	totalDistance 	3414.0659791031
scalar RSUExampleScenario.node[140].veinsmobility 	totalCO2Emission 	759.43646940332
scalar RSUExampleScenario.node[141].veinsmobility 	startTime 	423.1
scalar RSUExampleScenario.node[141].veinsmobility 	totalTime 	337
scalar RSUExampleScenario.node[141].veinsmobility 	stopTime 	760.2
scalar RSUExampleScenario.node[141].veinsmobility 	minSpeed 	0.24720161968539
scalar RSUExampleScenario.node[141].veinsmobility 	maxSpeed 	13.999995814483
scalar RSUExampleScenario.node[141].veinsmobility 	totalDistance 	3409.5284189829
scalar RSUExampleScenario.node[141].veinsmobility 	totalCO2Emission 	757.48863657093
scalar RSUExampleScenario.node[142].veinsmobility 	startTime 	426.1
scalar RSUExampleScenario.node[142].veinsmobility 	totalTime 	337.7
scalar RSUExampleScenario.node[142].veinsmobility 	stopTime 	763.9
scalar RSUExampleScenario.node[142].veinsmobility 	minSpeed 	0.24920040298393
scalar RSUExampleScenario.node[142].veinsmobility 	maxSpeed 	13.999934386094
scalar RSUExampleScenario.node[142].veinsmobility 	totalDistance 	3413.7465267533
scalar RSUExampleScenario.node[142].veinsmobility 	totalCO2Emission 	759.18561722645
scalar RSUExampleScenario.node[143].veinsmobility 	startTime 	429.1
scalar RSUExampleScenario.node[143].veinsmobility 	totalTime 	338.4
scalar RSUExampleScenario.node[143].veinsmobility 	stopTime 	767.6
scalar RSUExampleScenario.node[143].veinsmobility 	minSpeed 	0.25193424646347
scalar RSUExampleScenario.node[143].veinsmobility 	maxSpeed 	13.999983272187
scalar RSUExampleScenario.node[143].veinsmobility 	totalDistance 	3410.1785624057
scalar RSUExampleScenario.node[143].veinsmobility 	totalCO2Emission 	763.12600326416
scalar RSUExampleScenario.node[144].veinsmobility 	startTime 	432.1
scalar RSUExampleScenario.node[144].veinsmobility 	totalTime 	339.1
scalar RSUExampleScenario.node[144].veinsmobility 	stopTime 	771.3
scalar RSUExampleScenario.node[144].veinsmobility 	minSpeed 	0.25848902426474
scalar RSUExampleScenario.node[144].veinsmobility 	maxSpeed 	13.999945682893
scalar RSUExampleScenario.node[144].veinsmobility 	totalDistance 	3413.9007652802
scalar RSUExampleScenario.node[144].veinsmobility 	totalCO2Emission 	762.86587011354
scalar RSUExampleScenario.node[145].veinsmobility 	startTime 	435.1
scalar RSUExampleScenario.node[145].veinsmobility 	totalTime 	339.8
scalar RSUExampleScenario.node[145].veinsmobility 	stopTime 	775
scalar RSUExampleScenario.node[145].veinsmobility 	minSpeed 	0.25605174816004
scalar RSUExampleScenario.node[145].veinsmobility 	maxSpeed 	13.999989253352
scalar RSUExampleScenario.node[145].veinsmobility 	totalDistance 	3410.0696624984
scalar RSUExampleScenario.node[145].veinsmobility 	totalCO2Emission 	764.73745588286
scalar RSUExampleScenario.node[146].veinsmobility 	startTime 	438.1
scalar RSUExampleScenario.node[146].veinsmobility 	totalTime 	340.5
scalar RSUExampleScenario.node[146].veinsmobility 	stopTime 	778.7
scalar RSUExampleScenario.node[146].veinsmobility 	minSpeed 	0.25488057723292
scalar RSUExampleScenario.node[146].veinsmobility 	maxSpeed 	13.999953380434
scalar RSUExampleScenario.node[146].veinsmobility 	totalDistance 	3414.2602753831
scalar RSUExampleScenario.node[146].veinsmobility 	totalCO2Emission 	765.92396226571
scalar RSUExampleScenario.node[147].veinsmobility 	startTime 	441.1
scalar RSUExampleScenario.node[147].veinsmobility 	totalTime 	341.1
scalar RSUExampleScenario.node[147].veinsmobility 	stopTime 	782.3
scalar RSUExampleScenario.node[147].veinsmobility 	minSpeed 	0.25835800452717
scalar RSUExampleScenario.node[147].veinsmobility 	maxSpeed 	13.999981586291
scalar RSUExampleScenario.node[147].veinsmobility 	totalDistance 	3409.737136312
scalar RSUExampleScenario.node[147].veinsmobility 	totalCO2Emission 	763.7239938167
scalar RSUExampleScenario.node[148].veinsmobility 	startTime 	444.1
scalar RSUExampleScenario.node[148].veinsmobility 	totalTime 	341.7
scalar RSUExampleScenario.node[148].veinsmobility 	stopTime 	785.9
scalar RSUExampleScenario.node[148].veinsmobility 	minSpeed 	0.25598966256273
scalar RSUExampleScenario.node[148].veinsmobility 	maxSpeed 	13.999948892267
scalar RSUExampleScenario.node[148].veinsmobility 	totalDistance 	3413.8292022179
scalar RSUExampleScenario.node[148].veinsmobility 	totalCO2Emission 	765.21657041745
scalar RSUExampleScenario.node[149].veinsmobility 	startTime 	447.1
scalar RSUExampleScenario.node[149].veinsmobility 	totalTime 	342.4
scalar RSUExampleScenario.node[149].veinsmobility 	stopTime 	789.6
scalar RSUExampleScenario.node[149].veinsmobility 	minSpeed 	0.24748254240514
scalar RSUExampleScenario.node[149].veinsmobility 	maxSpeed 	13.999928129641
scalar RSUExampleScenario.node[149].veinsmobility 	totalDistance 	3409.7445860418
scalar RSUExampleScenario.node[149].veinsmobility 	totalCO2Emission 	760.92987846356
scalar RSUExampleScenario.node[150].veinsmobility 	startTime 	450.1
scalar RSUExampleScenario.node[150].veinsmobility 	totalTime 	343
scalar RSUExampleScenario.node[150].veinsmobility 	stopTime 	793.2
scalar RSUExampleScenario.node[150].veinsmobility 	minSpeed 	0.25494926931406
scalar RSUExampleScenario.node[150].veinsmobility 	maxSpeed 	13.999835758777
scalar RSUExampleScenario.node[150].veinsmobility 	totalDistance 	3413.6965087856
scalar RSUExampleScenario.node[150].veinsmobility 	totalCO2Emission 	761.94144995216
scalar RSUExampleScenario.node[151].veinsmobility 	startTime 	453.1
scalar RSUExampleScenario.node[151].veinsmobility 	totalTime 	343.7
scalar RSUExampleScenario.node[151].veinsmobility 	stopTime 	796.9
scalar RSUExampleScenario.node[151].veinsmobility 	minSpeed 	0.25535067241709
scalar RSUExampleScenario.node[151].veinsmobility 	maxSpeed 	13.999946705375
scalar RSUExampleScenario.node[151].veinsmobility 	totalDistance 	3410.1542442213
scalar RSUExampleScenario.node[151].veinsmobility 	totalCO2Emission 	764.28722848056
scalar RSUExampleScenario.node[152].veinsmobility 	startTime 	456.1
scalar RSUExampleScenario.node[152].veinsmobility 	totalTime 	344.4
scalar RSUExampleScenario.node[152].veinsmobility 	stopTime 	800.6
scalar RSUExampleScenario.node[152].veinsmobility 	minSpeed 	0.25089438067679
scalar RSUExampleScenario.node[152].veinsmobility 	maxSpeed 	13.999998967831
scalar RSUExampleScenario.node[152].veinsmobility 	totalDistance 	3414.2537857429
[...]
scalar RSUExampleScenario.node[628].veinsmobility 	totalCO2Emission 	325.08268887429
scalar RSUExampleScenario.node[629].veinsmobility 	startTime 	1887.1
scalar RSUExampleScenario.node[629].veinsmobility 	totalTime 	112.8
scalar RSUExampleScenario.node[629].veinsmobility 	stopTime 	2000
scalar RSUExampleScenario.node[629].veinsmobility 	minSpeed 	0.25950269676489
scalar RSUExampleScenario.node[629].veinsmobility 	maxSpeed 	13.999632534995
scalar RSUExampleScenario.node[629].veinsmobility 	totalDistance 	1362.0402061612
scalar RSUExampleScenario.node[629].veinsmobility 	totalCO2Emission 	315.12519984921
scalar RSUExampleScenario.node[630].veinsmobility 	startTime 	1890.1
scalar RSUExampleScenario.node[630].veinsmobility 	totalTime 	109.8
scalar RSUExampleScenario.node[630].veinsmobility 	stopTime 	2000
scalar RSUExampleScenario.node[630].veinsmobility 	minSpeed 	0.25255970729259
scalar RSUExampleScenario.node[630].veinsmobility 	maxSpeed 	13.999876654213
scalar RSUExampleScenario.node[630].veinsmobility 	totalDistance 	1320.6280775005
scalar RSUExampleScenario.node[630].veinsmobility 	totalCO2Emission 	309.82707810663
scalar RSUExampleScenario.node[631].veinsmobility 	startTime 	1893.1
scalar RSUExampleScenario.node[631].veinsmobility 	totalTime 	106.8
scalar RSUExampleScenario.node[631].veinsmobility 	stopTime 	2000
scalar RSUExampleScenario.node[631].veinsmobility 	minSpeed 	0.25544783040485
scalar RSUExampleScenario.node[631].veinsmobility 	maxSpeed 	13.999981059961
scalar RSUExampleScenario.node[631].veinsmobility 	totalDistance 	1278.6023795371
scalar RSUExampleScenario.node[631].veinsmobility 	totalCO2Emission 	306.09656235961
scalar RSUExampleScenario.node[632].veinsmobility 	startTime 	1896.1
scalar RSUExampleScenario.node[632].veinsmobility 	totalTime 	103.8
scalar RSUExampleScenario.node[632].veinsmobility 	stopTime 	2000
scalar RSUExampleScenario.node[632].veinsmobility 	minSpeed 	0.2554921349904
scalar RSUExampleScenario.node[632].veinsmobility 	maxSpeed 	13.999951154345
scalar RSUExampleScenario.node[632].veinsmobility 	totalDistance 	1237.7976510637
scalar RSUExampleScenario.node[632].veinsmobility 	totalCO2Emission 	299.3703573994
scalar RSUExampleScenario.node[633].veinsmobility 	startTime 	1899.1
scalar RSUExampleScenario.node[633].veinsmobility 	totalTime 	100.8
scalar RSUExampleScenario.node[633].veinsmobility 	stopTime 	2000
scalar RSUExampleScenario.node[633].veinsmobility 	minSpeed 	0.25328209995315
scalar RSUExampleScenario.node[633].veinsmobility 	maxSpeed 	13.999758988819
scalar RSUExampleScenario.node[633].veinsmobility 	totalDistance 	1194.4853356674
scalar RSUExampleScenario.node[633].veinsmobility 	totalCO2Emission 	287.63395398376
scalar RSUExampleScenario.node[634].veinsmobility 	startTime 	1902.1
scalar RSUExampleScenario.node[634].veinsmobility 	totalTime 	97.8
scalar RSUExampleScenario.node[634].veinsmobility 	stopTime 	2000
scalar RSUExampleScenario.node[634].veinsmobility 	minSpeed 	0.25317457917938
scalar RSUExampleScenario.node[634].veinsmobility 	maxSpeed 	13.99993267223
scalar RSUExampleScenario.node[634].veinsmobility 	totalDistance 	1152.4133277331
scalar RSUExampleScenario.node[634].veinsmobility 	totalCO2Emission 	281.70963014586
scalar RSUExampleScenario.node[635].veinsmobility 	startTime 	1905.1
scalar RSUExampleScenario.node[635].veinsmobility 	totalTime 	94.8
scalar RSUExampleScenario.node[635].veinsmobility 	stopTime 	2000
scalar RSUExampleScenario.node[635].veinsmobility 	minSpeed 	0.24710701654549
scalar RSUExampleScenario.node[635].veinsmobility 	maxSpeed 	13.999901904915
scalar RSUExampleScenario.node[635].veinsmobility 	totalDistance 	1111.7609308811
scalar RSUExampleScenario.node[635].veinsmobility 	totalCO2Emission 	273.61047708633
scalar RSUExampleScenario.node[636].veinsmobility 	startTime 	1908.1
scalar RSUExampleScenario.node[636].veinsmobility 	totalTime 	91.8
scalar RSUExampleScenario.node[636].veinsmobility 	stopTime 	2000
scalar RSUExampleScenario.node[636].veinsmobility 	minSpeed 	0.2553105265405
scalar RSUExampleScenario.node[636].veinsmobility 	maxSpeed 	13.999517168636
scalar RSUExampleScenario.node[636].veinsmobility 	totalDistance 	1069.4944960968
scalar RSUExampleScenario.node[636].veinsmobility 	totalCO2Emission 	267.44887234133
scalar RSUExampleScenario.node[637].veinsmobility 	startTime 	1911.1
scalar RSUExampleScenario.node[637].veinsmobility 	totalTime 	88.8
scalar RSUExampleScenario.node[637].veinsmobility 	stopTime 	2000
scalar RSUExampleScenario.node[637].veinsmobility 	minSpeed 	0.25936913091177
scalar RSUExampleScenario.node[637].veinsmobility 	maxSpeed 	13.999948090287
scalar RSUExampleScenario.node[637].veinsmobility 	totalDistance 	1028.1365151463
scalar RSUExampleScenario.node[637].veinsmobility 	totalCO2Emission 	257.95625528114
scalar RSUExampleScenario.node[638].veinsmobility 	startTime 	1914.1
scalar RSUExampleScenario.node[638].veinsmobility 	totalTime 	85.8
scalar RSUExampleScenario.node[638].veinsmobility 	stopTime 	2000
scalar RSUExampleScenario.node[638].veinsmobility 	minSpeed 	0.24932959373016
scalar RSUExampleScenario.node[638].veinsmobility 	maxSpeed 	13.999985854228
scalar RSUExampleScenario.node[638].veinsmobility 	totalDistance 	987.35508693627
scalar RSUExampleScenario.node[638].veinsmobility 	totalCO2Emission 	250.54959921479
scalar RSUExampleScenario.node[639].veinsmobility 	startTime 	1917.1
scalar RSUExampleScenario.node[639].veinsmobility 	totalTime 	82.8
scalar RSUExampleScenario.node[639].veinsmobility 	stopTime 	2000
scalar RSUExampleScenario.node[639].veinsmobility 	minSpeed 	0.24702443637233
scalar RSUExampleScenario.node[639].veinsmobility 	maxSpeed 	13.999952488528
scalar RSUExampleScenario.node[639].veinsmobility 	totalDistance 	954.13877748833
scalar RSUExampleScenario.node[639].veinsmobility 	totalCO2Emission 	232.53309129755
scalar RSUExampleScenario.node[640].veinsmobility 	startTime 	1920.1
scalar RSUExampleScenario.node[640].veinsmobility 	totalTime 	79.8
scalar RSUExampleScenario.node[640].veinsmobility 	stopTime 	2000
scalar RSUExampleScenario.node[640].veinsmobility 	minSpeed 	0.25998961800896
scalar RSUExampleScenario.node[640].veinsmobility 	maxSpeed 	13.999432611784
scalar RSUExampleScenario.node[640].veinsmobility 	totalDistance 	937.28582308462
scalar RSUExampleScenario.node[640].veinsmobility 	totalCO2Emission 	222.13841800921
scalar RSUExampleScenario.node[641].veinsmobility 	startTime 	1923.1
scalar RSUExampleScenario.node[641].veinsmobility 	totalTime 	76.8
scalar RSUExampleScenario.node[641].veinsmobility 	stopTime 	2000
scalar RSUExampleScenario.node[641].veinsmobility 	minSpeed 	0.25616796154762
scalar RSUExampleScenario.node[641].veinsmobility 	maxSpeed 	13.9998474322
scalar RSUExampleScenario.node[641].veinsmobility 	totalDistance 	911.4470190296
scalar RSUExampleScenario.node[641].veinsmobility 	totalCO2Emission 	218.76285316597
scalar RSUExampleScenario.node[642].veinsmobility 	startTime 	1926.1
scalar RSUExampleScenario.node[642].veinsmobility 	totalTime 	73.8
scalar RSUExampleScenario.node[642].veinsmobility 	stopTime 	2000
scalar RSUExampleScenario.node[642].veinsmobility 	minSpeed 	0.25559386476642
scalar RSUExampleScenario.node[642].veinsmobility 	maxSpeed 	13.999887561009
scalar RSUExampleScenario.node[642].veinsmobility 	totalDistance 	871.85211806206
scalar RSUExampleScenario.node[642].veinsmobility 	totalCO2Emission 	215.4256012756
scalar RSUExampleScenario.node[643].veinsmobility 	startTime 	1929.1
scalar RSUExampleScenario.node[643].veinsmobility 	totalTime 	70.8
scalar RSUExampleScenario.node[643].veinsmobility 	stopTime 	2000
scalar RSUExampleScenario.node[643].veinsmobility 	minSpeed 	0.25362480091397
scalar RSUExampleScenario.node[643].veinsmobility 	maxSpeed 	13.999891860001
scalar RSUExampleScenario.node[643].veinsmobility 	totalDistance 	831.18670306608
scalar RSUExampleScenario.node[643].veinsmobility 	totalCO2Emission 	205.15272942562
scalar RSUExampleScenario.node[644].veinsmobility 	startTime 	1932.1
scalar RSUExampleScenario.node[644].veinsmobility 	totalTime 	67.8
scalar RSUExampleScenario.node[644].veinsmobility 	stopTime 	2000
scalar RSUExampleScenario.node[644].veinsmobility 	minSpeed 	0.25410931241186
scalar RSUExampleScenario.node[644].veinsmobility 	maxSpeed 	13.999794600948
scalar RSUExampleScenario.node[644].veinsmobility 	totalDistance 	788.01381789309
scalar RSUExampleScenario.node[644].veinsmobility 	totalCO2Emission 	200.35694047621
scalar RSUExampleScenario.node[645].veinsmobility 	startTime 	1935.1
scalar RSUExampleScenario.node[645].veinsmobility 	totalTime 	64.8
scalar RSUExampleScenario.node[645].veinsmobility 	stopTime 	2000
scalar RSUExampleScenario.node[645].veinsmobility 	minSpeed 	0.25505230100383
scalar RSUExampleScenario.node[645].veinsmobility 	maxSpeed 	13.999381495547
scalar RSUExampleScenario.node[645].veinsmobility 	totalDistance 	747.60237423268
scalar RSUExampleScenario.node[645].veinsmobility 	totalCO2Emission 	191.99095714242
scalar RSUExampleScenario.node[646].veinsmobility 	startTime 	1938.1
scalar RSUExampleScenario.node[646].veinsmobility 	totalTime 	61.8
scalar RSUExampleScenario.node[646].veinsmobility 	stopTime 	2000
scalar RSUExampleScenario.node[646].veinsmobility 	minSpeed 	0.25247102588997
scalar RSUExampleScenario.node[646].veinsmobility 	maxSpeed 	13.999194656792
scalar RSUExampleScenario.node[646].veinsmobility 	totalDistance 	707.57653463943
scalar RSUExampleScenario.node[646].veinsmobility 	totalCO2Emission 	185.71374944251
scalar RSUExampleScenario.node[647].veinsmobility 	startTime 	1941.1
scalar RSUExampleScenario.node[647].veinsmobility 	totalTime 	58.8
scalar RSUExampleScenario.node[647].veinsmobility 	stopTime 	2000
scalar RSUExampleScenario.node[647].veinsmobility 	minSpeed 	0.25944180411054
scalar RSUExampleScenario.node[647].veinsmobility 	maxSpeed 	13.999988963022
scalar RSUExampleScenario.node[647].veinsmobility 	totalDistance 	662.97695659892
scalar RSUExampleScenario.node[647].veinsmobility 	totalCO2Emission 	181.17814069516
scalar RSUExampleScenario.node[648].veinsmobility 	startTime 	1944.1
scalar RSUExampleScenario.node[648].veinsmobility 	totalTime 	55.8
scalar RSUExampleScenario.node[648].veinsmobility 	stopTime 	2000
scalar RSUExampleScenario.node[648].veinsmobility 	minSpeed 	0.24874672990013
scalar RSUExampleScenario.node[648].veinsmobility 	maxSpeed 	13.999763523659
scalar RSUExampleScenario.node[648].veinsmobility 	totalDistance 	623.18738886979
scalar RSUExampleScenario.node[648].veinsmobility 	totalCO2Emission 	170.98386932691
scalar RSUExampleScenario.node[649].veinsmobility 	startTime 	1947.1
scalar RSUExampleScenario.node[649].veinsmobility 	totalTime 	52.8
scalar RSUExampleScenario.node[649].veinsmobility 	stopTime 	2000
scalar RSUExampleScenario.node[649].veinsmobility 	minSpeed 	0.24990971927624
scalar RSUExampleScenario.node[649].veinsmobility 	maxSpeed 	13.999678463633
scalar RSUExampleScenario.node[649].veinsmobility 	totalDistance 	581.4009053406
scalar RSUExampleScenario.node[649].veinsmobility 	totalCO2Emission 	163.46664121397
scalar RSUExampleScenario.node[650].veinsmobility 	startTime 	1950.1
scalar RSUExampleScenario.node[650].veinsmobility 	totalTime 	49.8
scalar RSUExampleScenario.node[650].veinsmobility 	stopTime 	2000
scalar RSUExampleScenario.node[650].veinsmobility 	minSpeed 	0.24740254295594
scalar RSUExampleScenario.node[650].veinsmobility 	maxSpeed 	13.99885008086
scalar RSUExampleScenario.node[650].veinsmobility 	totalDistance 	536.21158464491
scalar RSUExampleScenario.node[650].veinsmobility 	totalCO2Emission 	158.08848806962
scalar RSUExampleScenario.node[651].veinsmobility 	startTime 	1953.1
scalar RSUExampleScenario.node[651].veinsmobility 	totalTime 	46.8
scalar RSUExampleScenario.node[651].veinsmobility 	stopTime 	2000
scalar RSUExampleScenario.node[651].veinsmobility 	minSpeed 	0.24881761571998
scalar RSUExampleScenario.node[651].veinsmobility 	maxSpeed 	13.999891961489
scalar RSUExampleScenario.node[651].veinsmobility 	totalDistance 	496.04775853445
scalar RSUExampleScenario.node[651].veinsmobility 	totalCO2Emission 	150.16712765408
scalar RSUExampleScenario.node[652].veinsmobility 	startTime 	1956.1
scalar RSUExampleScenario.node[652].veinsmobility 	totalTime 	43.8
scalar RSUExampleScenario.node[652].veinsmobility 	stopTime 	2000
scalar RSUExampleScenario.node[652].veinsmobility 	minSpeed 	0.25967284356779
scalar RSUExampleScenario.node[652].veinsmobility 	maxSpeed 	13.999419685509
scalar RSUExampleScenario.node[652].veinsmobility 	totalDistance 	454.31809833994
scalar RSUExampleScenario.node[652].veinsmobility 	totalCO2Emission 	143.02201212204
scalar RSUExampleScenario.node[653].veinsmobility 	startTime 	1959.1
scalar RSUExampleScenario.node[653].veinsmobility 	totalTime 	40.8
scalar RSUExampleScenario.node[653].veinsmobility 	stopTime 	2000
scalar RSUExampleScenario.node[653].veinsmobility 	minSpeed 	0.25080591768795
scalar RSUExampleScenario.node[653].veinsmobility 	maxSpeed 	13.999023154855
scalar RSUExampleScenario.node[653].veinsmobility 	totalDistance 	410.76256061248
scalar RSUExampleScenario.node[653].veinsmobility 	totalCO2Emission 	136.56603490589
scalar RSUExampleScenario.node[654].veinsmobility 	startTime 	1962.1
scalar RSUExampleScenario.node[654].veinsmobility 	totalTime 	37.8
scalar RSUExampleScenario.node[654].veinsmobility 	stopTime 	2000
scalar RSUExampleScenario.node[654].veinsmobility 	minSpeed 	0.25111720273667
scalar RSUExampleScenario.node[654].veinsmobility 	maxSpeed 	13.996266581358
scalar RSUExampleScenario.node[654].veinsmobility 	totalDistance 	370.06146829794
scalar RSUExampleScenario.node[654].veinsmobility 	totalCO2Emission 	129.65793103674
scalar RSUExampleScenario.node[655].veinsmobility 	startTime 	1965.1
scalar RSUExampleScenario.node[655].veinsmobility 	totalTime 	34.8
scalar RSUExampleScenario.node[655].veinsmobility 	stopTime 	2000
scalar RSUExampleScenario.node[655].veinsmobility 	minSpeed 	0.25994878230989
scalar RSUExampleScenario.node[655].veinsmobility 	maxSpeed 	13.994311566178
scalar RSUExampleScenario.node[655].veinsmobility 	totalDistance 	326.78213794928
scalar RSUExampleScenario.node[655].veinsmobility 	totalCO2Emission 	121.49425318668
scalar RSUExampleScenario.node[656].veinsmobility 	startTime 	1968.1
scalar RSUExampleScenario.node[656].veinsmobility 	totalTime 	31.8
scalar RSUExampleScenario.node[656].veinsmobility 	stopTime 	2000
scalar RSUExampleScenario.node[656].veinsmobility 	minSpeed 	0.25333039023285
scalar RSUExampleScenario.node[656].veinsmobility 	maxSpeed 	13.997518580211
scalar RSUExampleScenario.node[656].veinsmobility 	totalDistance 	287.13400166945
scalar RSUExampleScenario.node[656].veinsmobility 	totalCO2Emission 	114.61150365615
scalar RSUExampleScenario.node[657].veinsmobility 	startTime 	1971.1
scalar RSUExampleScenario.node[657].veinsmobility 	totalTime 	28.8
scalar RSUExampleScenario.node[657].veinsmobility 	stopTime 	2000
scalar RSUExampleScenario.node[657].veinsmobility 	minSpeed 	0.25492359482381
scalar RSUExampleScenario.node[657].veinsmobility 	maxSpeed 	13.886951419672
scalar RSUExampleScenario.node[657].veinsmobility 	totalDistance 	248.66443480677
scalar RSUExampleScenario.node[657].veinsmobility 	totalCO2Emission 	100.04374139436
scalar RSUExampleScenario.node[658].veinsmobility 	startTime 	1974.1
scalar RSUExampleScenario.node[658].veinsmobility 	totalTime 	25.8
scalar RSUExampleScenario.node[658].veinsmobility 	stopTime 	2000
scalar RSUExampleScenario.node[658].veinsmobility 	minSpeed 	0.25942950729723
scalar RSUExampleScenario.node[658].veinsmobility 	maxSpeed 	13.882985590557
scalar RSUExampleScenario.node[658].veinsmobility 	totalDistance 	225.45711603956
scalar RSUExampleScenario.node[658].veinsmobility 	totalCO2Emission 	83.00848265435
scalar RSUExampleScenario.node[659].veinsmobility 	startTime 	1977.1
scalar RSUExampleScenario.node[659].veinsmobility 	totalTime 	22.8
scalar RSUExampleScenario.node[659].veinsmobility 	stopTime 	2000
scalar RSUExampleScenario.node[659].veinsmobility 	minSpeed 	0.25735664886865
scalar RSUExampleScenario.node[659].veinsmobility 	maxSpeed 	13.878496534063
scalar RSUExampleScenario.node[659].veinsmobility 	totalDistance 	208.03748157279
scalar RSUExampleScenario.node[659].veinsmobility 	totalCO2Emission 	78.161590644954
scalar RSUExampleScenario.node[660].veinsmobility 	startTime 	1980.1
scalar RSUExampleScenario.node[660].veinsmobility 	totalTime 	19.8
scalar RSUExampleScenario.node[660].veinsmobility 	stopTime 	2000
scalar RSUExampleScenario.node[660].veinsmobility 	minSpeed 	0.25887525382172
scalar RSUExampleScenario.node[660].veinsmobility 	maxSpeed 	13.878458949733
scalar RSUExampleScenario.node[660].veinsmobility 	totalDistance 	175.41735059782
scalar RSUExampleScenario.node[660].veinsmobility 	totalCO2Emission 	75.149791494416
scalar RSUExampleScenario.node[661].veinsmobility 	startTime 	1983.1
scalar RSUExampleScenario.node[661].veinsmobility 	totalTime 	16.8
scalar RSUExampleScenario.node[661].veinsmobility 	stopTime 	2000
scalar RSUExampleScenario.node[661].veinsmobility 	minSpeed 	0.25689625342307
scalar RSUExampleScenario.node[661].veinsmobility 	maxSpeed 	13.883048765166
scalar RSUExampleScenario.node[661].veinsmobility 	totalDistance 	138.01421300717
scalar RSUExampleScenario.node[661].veinsmobility 	totalCO2Emission 	58.117616364629
scalar RSUExampleScenario.node[662].veinsmobility 	startTime 	1986.1
scalar RSUExampleScenario.node[662].veinsmobility 	totalTime 	13.8
scalar RSUExampleScenario.node[662].veinsmobility 	stopTime 	2000
scalar RSUExampleScenario.node[662].veinsmobility 	minSpeed 	0.25912651913869
scalar RSUExampleScenario.node[662].veinsmobility 	maxSpeed 	13.889292237442
scalar RSUExampleScenario.node[662].veinsmobility 	totalDistance 	116.75857219427
scalar RSUExampleScenario.node[662].veinsmobility 	totalCO2Emission 	42.897454572672
scalar RSUExampleScenario.node[663].veinsmobility 	startTime 	1989.1
scalar RSUExampleScenario.node[663].veinsmobility 	totalTime 	10.8
scalar RSUExampleScenario.node[663].veinsmobility 	stopTime 	2000
scalar RSUExampleScenario.node[663].veinsmobility 	minSpeed 	0.25981388700823
scalar RSUExampleScenario.node[663].veinsmobility 	maxSpeed 	13.882926351815
scalar RSUExampleScenario.node[663].veinsmobility 	totalDistance 	97.473957203921
scalar RSUExampleScenario.node[663].veinsmobility 	totalCO2Emission 	39.520774360445
scalar RSUExampleScenario.node[664].veinsmobility 	startTime 	1992.1
scalar RSUExampleScenario.node[664].veinsmobility 	totalTime 	7.8
scalar RSUExampleScenario.node[664].veinsmobility 	stopTime 	2000
scalar RSUExampleScenario.node[664].veinsmobility 	minSpeed 	0.25009688796685
scalar RSUExampleScenario.node[664].veinsmobility 	maxSpeed 	13.883788797571
scalar RSUExampleScenario.node[664].veinsmobility 	totalDistance 	63.054877986732
scalar RSUExampleScenario.node[664].veinsmobility 	totalCO2Emission 	35.968437585236
scalar RSUExampleScenario.node[665].veinsmobility 	startTime 	1995.1
scalar RSUExampleScenario.node[665].veinsmobility 	totalTime 	4.8
scalar RSUExampleScenario.node[665].veinsmobility 	stopTime 	2000
scalar RSUExampleScenario.node[665].veinsmobility 	minSpeed 	0.24862047430687
scalar RSUExampleScenario.node[665].veinsmobility 	maxSpeed 	9.5959566921319
scalar RSUExampleScenario.node[665].veinsmobility 	totalDistance 	24.196723223019
scalar RSUExampleScenario.node[665].veinsmobility 	totalCO2Emission 	17.810693667756
scalar RSUExampleScenario.node[666].veinsmobility 	startTime 	1998.1
scalar RSUExampleScenario.node[666].veinsmobility 	totalTime 	1.8
scalar RSUExampleScenario.node[666].veinsmobility 	stopTime 	2000
scalar RSUExampleScenario.node[666].veinsmobility 	minSpeed 	0.24855245212885
scalar RSUExampleScenario.node[666].veinsmobility 	maxSpeed 	3.9173890269409
scalar RSUExampleScenario.node[666].veinsmobility 	totalDistance 	3.9271730473469
scalar RSUExampleScenario.node[666].veinsmobility 	totalCO2Emission 	4.0185572399914
