version 2
run statistic4-274-20150324-13:09:18-9280
attr c 9
attr configname statistic4
attr datetime 20150324-13:09:18
attr experiment statistic4
attr inifile omnetpp.ini
attr iterationvars "$p=1/8, $c=9"
attr iterationvars2 "$p=1/8, $c=9, $repetition=74"
attr measurement "$p=1/8, $c=9"
attr network RSUExampleScenario
attr p 1/8
attr processid 9280
attr repetition 74
attr replication #74
attr resultdir results
attr runnumber 274
attr seedset 274

scalar . 	c 	9
scalar RSUExampleScenario.rsu[0].appl 	NumberofCH 	11
scalar RSUExampleScenario.rsu[0].appl 	NumberofON 	84
scalar RSUExampleScenario.rsu[0].appl 	NumberofFN 	5
scalar RSUExampleScenario.rsu[0].appl 	meanClusterNodes 	7.6363636363636
scalar RSUExampleScenario.rsu[0].appl 	varClusterNodes 	1.3666633071248
scalar RSUExampleScenario.rsu[0].appl 	sumCHutility 	408.99825284492
scalar RSUExampleScenario.rsu[0].appl 	meanCHutility 	37.181659349538
scalar RSUExampleScenario.rsu[0].appl 	varCHutility 	1.7980897954177
scalar RSUExampleScenario.rsu[0].appl 	sumDiffCHutility 	-34.549279443586
scalar RSUExampleScenario.rsu[0].appl 	meanDiffCHutility 	-3.1408435857806
scalar RSUExampleScenario.rsu[0].appl 	varDiffCHutility 	1.6692876430299
scalar RSUExampleScenario.rsu[0].appl 	expectedCHutility 	374.44897340133
scalar RSUExampleScenario.rsu[0].appl 	meanExpectedCHutility 	34.040815763758
scalar RSUExampleScenario.rsu[0].appl 	varExpectedCHutility 	0.5161259604373
scalar RSUExampleScenario.node[0].veinsmobility 	startTime 	0.1
scalar RSUExampleScenario.node[0].veinsmobility 	totalTime 	349.9
scalar RSUExampleScenario.node[0].veinsmobility 	stopTime 	350
scalar RSUExampleScenario.node[0].veinsmobility 	minSpeed 	0
scalar RSUExampleScenario.node[0].veinsmobility 	maxSpeed 	13.999959626656
scalar RSUExampleScenario.node[0].veinsmobility 	totalDistance 	3135.0036742084
scalar RSUExampleScenario.node[0].veinsmobility 	totalCO2Emission 	741.25619844664
scalar RSUExampleScenario.node[1].veinsmobility 	startTime 	2.5
scalar RSUExampleScenario.node[1].veinsmobility 	totalTime 	347.5
scalar RSUExampleScenario.node[1].veinsmobility 	stopTime 	350
scalar RSUExampleScenario.node[1].veinsmobility 	minSpeed 	0
scalar RSUExampleScenario.node[1].veinsmobility 	maxSpeed 	13.999943928227
scalar RSUExampleScenario.node[1].veinsmobility 	totalDistance 	3081.7220196347
scalar RSUExampleScenario.node[1].veinsmobility 	totalCO2Emission 	729.75984124994
scalar RSUExampleScenario.node[10].veinsmobility 	startTime 	24.2
scalar RSUExampleScenario.node[10].veinsmobility 	totalTime 	325.8
scalar RSUExampleScenario.node[10].veinsmobility 	stopTime 	350
scalar RSUExampleScenario.node[10].veinsmobility 	minSpeed 	0
scalar RSUExampleScenario.node[10].veinsmobility 	maxSpeed 	13.99994474174
scalar RSUExampleScenario.node[10].veinsmobility 	totalDistance 	2788.782444081
scalar RSUExampleScenario.node[10].veinsmobility 	totalCO2Emission 	662.24143781788
scalar RSUExampleScenario.node[11].veinsmobility 	startTime 	26.6
scalar RSUExampleScenario.node[11].veinsmobility 	totalTime 	323.4
scalar RSUExampleScenario.node[11].veinsmobility 	stopTime 	350
scalar RSUExampleScenario.node[11].veinsmobility 	minSpeed 	0
scalar RSUExampleScenario.node[11].veinsmobility 	maxSpeed 	13.999880189847
scalar RSUExampleScenario.node[11].veinsmobility 	totalDistance 	2755.6973368411
scalar RSUExampleScenario.node[11].veinsmobility 	totalCO2Emission 	655.15946340953
scalar RSUExampleScenario.node[12].veinsmobility 	startTime 	29
scalar RSUExampleScenario.node[12].veinsmobility 	totalTime 	321
scalar RSUExampleScenario.node[12].veinsmobility 	stopTime 	350
scalar RSUExampleScenario.node[12].veinsmobility 	minSpeed 	0
scalar RSUExampleScenario.node[12].veinsmobility 	maxSpeed 	13.999944267259
scalar RSUExampleScenario.node[12].veinsmobility 	totalDistance 	2717.2825108535
scalar RSUExampleScenario.node[12].veinsmobility 	totalCO2Emission 	647.8759220573
scalar RSUExampleScenario.node[13].veinsmobility 	startTime 	31.4
scalar RSUExampleScenario.node[13].veinsmobility 	totalTime 	318.6
scalar RSUExampleScenario.node[13].veinsmobility 	stopTime 	350
scalar RSUExampleScenario.node[13].veinsmobility 	minSpeed 	0
scalar RSUExampleScenario.node[13].veinsmobility 	maxSpeed 	13.999947006572
scalar RSUExampleScenario.node[13].veinsmobility 	totalDistance 	2682.6511091746
scalar RSUExampleScenario.node[13].veinsmobility 	totalCO2Emission 	645.24259227844
scalar RSUExampleScenario.node[14].veinsmobility 	startTime 	33.8
scalar RSUExampleScenario.node[14].veinsmobility 	totalTime 	316.2
scalar RSUExampleScenario.node[14].veinsmobility 	stopTime 	350
scalar RSUExampleScenario.node[14].veinsmobility 	minSpeed 	0
scalar RSUExampleScenario.node[14].veinsmobility 	maxSpeed 	13.999920396777
scalar RSUExampleScenario.node[14].veinsmobility 	totalDistance 	2646.3441493264
scalar RSUExampleScenario.node[14].veinsmobility 	totalCO2Emission 	637.8483035577
scalar RSUExampleScenario.node[15].veinsmobility 	startTime 	36.2
scalar RSUExampleScenario.node[15].veinsmobility 	totalTime 	313.8
scalar RSUExampleScenario.node[15].veinsmobility 	stopTime 	350
scalar RSUExampleScenario.node[15].veinsmobility 	minSpeed 	0
scalar RSUExampleScenario.node[15].veinsmobility 	maxSpeed 	13.999922310894
scalar RSUExampleScenario.node[15].veinsmobility 	totalDistance 	2617.6352861156
scalar RSUExampleScenario.node[15].veinsmobility 	totalCO2Emission 	630.28312141051
scalar RSUExampleScenario.node[16].veinsmobility 	startTime 	38.6
scalar RSUExampleScenario.node[16].veinsmobility 	totalTime 	311.4
scalar RSUExampleScenario.node[16].veinsmobility 	stopTime 	350
scalar RSUExampleScenario.node[16].veinsmobility 	minSpeed 	0
scalar RSUExampleScenario.node[16].veinsmobility 	maxSpeed 	13.999974079619
scalar RSUExampleScenario.node[16].veinsmobility 	totalDistance 	2579.5038336486
scalar RSUExampleScenario.node[16].veinsmobility 	totalCO2Emission 	623.71398961335
scalar RSUExampleScenario.node[17].veinsmobility 	startTime 	41
scalar RSUExampleScenario.node[17].veinsmobility 	totalTime 	309
scalar RSUExampleScenario.node[17].veinsmobility 	stopTime 	350
scalar RSUExampleScenario.node[17].veinsmobility 	minSpeed 	0
scalar RSUExampleScenario.node[17].veinsmobility 	maxSpeed 	13.999971476723
scalar RSUExampleScenario.node[17].veinsmobility 	totalDistance 	2542.9991684566
scalar RSUExampleScenario.node[17].veinsmobility 	totalCO2Emission 	621.63773997356
scalar RSUExampleScenario.node[18].veinsmobility 	startTime 	43.4
scalar RSUExampleScenario.node[18].veinsmobility 	totalTime 	306.6
scalar RSUExampleScenario.node[18].veinsmobility 	stopTime 	350
scalar RSUExampleScenario.node[18].veinsmobility 	minSpeed 	0
scalar RSUExampleScenario.node[18].veinsmobility 	maxSpeed 	13.999926227056
scalar RSUExampleScenario.node[18].veinsmobility 	totalDistance 	2504.1734368003
scalar RSUExampleScenario.node[18].veinsmobility 	totalCO2Emission 	614.46346367822
scalar RSUExampleScenario.node[19].veinsmobility 	startTime 	45.8
scalar RSUExampleScenario.node[19].veinsmobility 	totalTime 	304.2
scalar RSUExampleScenario.node[19].veinsmobility 	stopTime 	350
scalar RSUExampleScenario.node[19].veinsmobility 	minSpeed 	0
scalar RSUExampleScenario.node[19].veinsmobility 	maxSpeed 	13.999938384253
scalar RSUExampleScenario.node[19].veinsmobility 	totalDistance 	2477.1907721289
scalar RSUExampleScenario.node[19].veinsmobility 	totalCO2Emission 	609.4220584256
scalar RSUExampleScenario.node[2].veinsmobility 	startTime 	4.9
scalar RSUExampleScenario.node[2].veinsmobility 	totalTime 	345.1
scalar RSUExampleScenario.node[2].veinsmobility 	stopTime 	350
scalar RSUExampleScenario.node[2].veinsmobility 	minSpeed 	0
scalar RSUExampleScenario.node[2].veinsmobility 	maxSpeed 	13.999980605124
scalar RSUExampleScenario.node[2].veinsmobility 	totalDistance 	3040.7129176738
scalar RSUExampleScenario.node[2].veinsmobility 	totalCO2Emission 	728.06809464538
scalar RSUExampleScenario.node[20].veinsmobility 	startTime 	48.3
scalar RSUExampleScenario.node[20].veinsmobility 	totalTime 	301.7
scalar RSUExampleScenario.node[20].veinsmobility 	stopTime 	350
scalar RSUExampleScenario.node[20].veinsmobility 	minSpeed 	0
scalar RSUExampleScenario.node[20].veinsmobility 	maxSpeed 	13.999946437988
scalar RSUExampleScenario.node[20].veinsmobility 	totalDistance 	2438.5551164775
scalar RSUExampleScenario.node[20].veinsmobility 	totalCO2Emission 	605.60057756363
scalar RSUExampleScenario.node[21].veinsmobility 	startTime 	50.7
scalar RSUExampleScenario.node[21].veinsmobility 	totalTime 	299.3
scalar RSUExampleScenario.node[21].veinsmobility 	stopTime 	350
scalar RSUExampleScenario.node[21].veinsmobility 	minSpeed 	0
scalar RSUExampleScenario.node[21].veinsmobility 	maxSpeed 	13.999868859269
scalar RSUExampleScenario.node[21].veinsmobility 	totalDistance 	2408.2607266535
scalar RSUExampleScenario.node[21].veinsmobility 	totalCO2Emission 	599.51805395953
scalar RSUExampleScenario.node[22].veinsmobility 	startTime 	53.1
scalar RSUExampleScenario.node[22].veinsmobility 	totalTime 	296.9
scalar RSUExampleScenario.node[22].veinsmobility 	stopTime 	350
scalar RSUExampleScenario.node[22].veinsmobility 	minSpeed 	0
scalar RSUExampleScenario.node[22].veinsmobility 	maxSpeed 	13.999878198213
scalar RSUExampleScenario.node[22].veinsmobility 	totalDistance 	2370.7350295706
scalar RSUExampleScenario.node[22].veinsmobility 	totalCO2Emission 	591.41467218772
scalar RSUExampleScenario.node[23].veinsmobility 	startTime 	55.5
scalar RSUExampleScenario.node[23].veinsmobility 	totalTime 	294.5
scalar RSUExampleScenario.node[23].veinsmobility 	stopTime 	350
scalar RSUExampleScenario.node[23].veinsmobility 	minSpeed 	0
scalar RSUExampleScenario.node[23].veinsmobility 	maxSpeed 	13.999922118208
scalar RSUExampleScenario.node[23].veinsmobility 	totalDistance 	2342.029238122
scalar RSUExampleScenario.node[23].veinsmobility 	totalCO2Emission 	585.82424735567
scalar RSUExampleScenario.node[24].veinsmobility 	startTime 	57.9
scalar RSUExampleScenario.node[24].veinsmobility 	totalTime 	292.1
scalar RSUExampleScenario.node[24].veinsmobility 	stopTime 	350
scalar RSUExampleScenario.node[24].veinsmobility 	minSpeed 	0
scalar RSUExampleScenario.node[24].veinsmobility 	maxSpeed 	13.999991811966
scalar RSUExampleScenario.node[24].veinsmobility 	totalDistance 	2302.4370050707
scalar RSUExampleScenario.node[24].veinsmobility 	totalCO2Emission 	579.5879191497
scalar RSUExampleScenario.node[25].veinsmobility 	startTime 	60.3
scalar RSUExampleScenario.node[25].veinsmobility 	totalTime 	289.7
scalar RSUExampleScenario.node[25].veinsmobility 	stopTime 	350
scalar RSUExampleScenario.node[25].veinsmobility 	minSpeed 	0
scalar RSUExampleScenario.node[25].veinsmobility 	maxSpeed 	13.999771183457
scalar RSUExampleScenario.node[25].veinsmobility 	totalDistance 	2272.5582279661
scalar RSUExampleScenario.node[25].veinsmobility 	totalCO2Emission 	572.32965114469
scalar RSUExampleScenario.node[26].veinsmobility 	startTime 	62.7
scalar RSUExampleScenario.node[26].veinsmobility 	totalTime 	287.3
scalar RSUExampleScenario.node[26].veinsmobility 	stopTime 	350
scalar RSUExampleScenario.node[26].veinsmobility 	minSpeed 	0
scalar RSUExampleScenario.node[26].veinsmobility 	maxSpeed 	13.999896417058
scalar RSUExampleScenario.node[26].veinsmobility 	totalDistance 	2235.8514153361
scalar RSUExampleScenario.node[26].veinsmobility 	totalCO2Emission 	569.06568925447
scalar RSUExampleScenario.node[27].veinsmobility 	startTime 	65.1
scalar RSUExampleScenario.node[27].veinsmobility 	totalTime 	284.9
scalar RSUExampleScenario.node[27].veinsmobility 	stopTime 	350
scalar RSUExampleScenario.node[27].veinsmobility 	minSpeed 	0
scalar RSUExampleScenario.node[27].veinsmobility 	maxSpeed 	13.999979844247
scalar RSUExampleScenario.node[27].veinsmobility 	totalDistance 	2205.9961120389
scalar RSUExampleScenario.node[27].veinsmobility 	totalCO2Emission 	565.51489048949
scalar RSUExampleScenario.node[28].veinsmobility 	startTime 	67.5
scalar RSUExampleScenario.node[28].veinsmobility 	totalTime 	282.5
scalar RSUExampleScenario.node[28].veinsmobility 	stopTime 	350
scalar RSUExampleScenario.node[28].veinsmobility 	minSpeed 	0
scalar RSUExampleScenario.node[28].veinsmobility 	maxSpeed 	13.999972417725
scalar RSUExampleScenario.node[28].veinsmobility 	totalDistance 	2168.1252818312
scalar RSUExampleScenario.node[28].veinsmobility 	totalCO2Emission 	557.46683867841
scalar RSUExampleScenario.node[29].veinsmobility 	startTime 	69.9
scalar RSUExampleScenario.node[29].veinsmobility 	totalTime 	280.1
scalar RSUExampleScenario.node[29].veinsmobility 	stopTime 	350
scalar RSUExampleScenario.node[29].veinsmobility 	minSpeed 	0
scalar RSUExampleScenario.node[29].veinsmobility 	maxSpeed 	13.999951183402
scalar RSUExampleScenario.node[29].veinsmobility 	totalDistance 	2136.0739922912
scalar RSUExampleScenario.node[29].veinsmobility 	totalCO2Emission 	553.61096397585
scalar RSUExampleScenario.node[3].veinsmobility 	startTime 	7.3
scalar RSUExampleScenario.node[3].veinsmobility 	totalTime 	342.7
scalar RSUExampleScenario.node[3].veinsmobility 	stopTime 	350
scalar RSUExampleScenario.node[3].veinsmobility 	minSpeed 	0
scalar RSUExampleScenario.node[3].veinsmobility 	maxSpeed 	13.99993483515
scalar RSUExampleScenario.node[3].veinsmobility 	totalDistance 	2995.7246018496
scalar RSUExampleScenario.node[3].veinsmobility 	totalCO2Emission 	716.66116436244
scalar RSUExampleScenario.node[30].veinsmobility 	startTime 	72.4
scalar RSUExampleScenario.node[30].veinsmobility 	totalTime 	277.6
scalar RSUExampleScenario.node[30].veinsmobility 	stopTime 	350
scalar RSUExampleScenario.node[30].veinsmobility 	minSpeed 	0
scalar RSUExampleScenario.node[30].veinsmobility 	maxSpeed 	13.999986349442
scalar RSUExampleScenario.node[30].veinsmobility 	totalDistance 	2100.4515336711
scalar RSUExampleScenario.node[30].veinsmobility 	totalCO2Emission 	548.4434802
scalar RSUExampleScenario.node[31].veinsmobility 	startTime 	74.8
scalar RSUExampleScenario.node[31].veinsmobility 	totalTime 	275.2
scalar RSUExampleScenario.node[31].veinsmobility 	stopTime 	350
scalar RSUExampleScenario.node[31].veinsmobility 	minSpeed 	0
scalar RSUExampleScenario.node[31].veinsmobility 	maxSpeed 	13.999964926369
scalar RSUExampleScenario.node[31].veinsmobility 	totalDistance 	2068.2990605774
scalar RSUExampleScenario.node[31].veinsmobility 	totalCO2Emission 	541.86636625414
scalar RSUExampleScenario.node[32].veinsmobility 	startTime 	77.2
scalar RSUExampleScenario.node[32].veinsmobility 	totalTime 	272.8
scalar RSUExampleScenario.node[32].veinsmobility 	stopTime 	350
scalar RSUExampleScenario.node[32].veinsmobility 	minSpeed 	0
scalar RSUExampleScenario.node[32].veinsmobility 	maxSpeed 	13.999986889514
scalar RSUExampleScenario.node[32].veinsmobility 	totalDistance 	2032.2140881892
scalar RSUExampleScenario.node[32].veinsmobility 	totalCO2Emission 	535.41161971541
scalar RSUExampleScenario.node[33].veinsmobility 	startTime 	79.6
scalar RSUExampleScenario.node[33].veinsmobility 	totalTime 	270.4
scalar RSUExampleScenario.node[33].veinsmobility 	stopTime 	350
scalar RSUExampleScenario.node[33].veinsmobility 	minSpeed 	0
scalar RSUExampleScenario.node[33].veinsmobility 	maxSpeed 	13.999958192469
scalar RSUExampleScenario.node[33].veinsmobility 	totalDistance 	1999.0811452389
scalar RSUExampleScenario.node[33].veinsmobility 	totalCO2Emission 	527.91508140417
scalar RSUExampleScenario.node[34].veinsmobility 	startTime 	82
scalar RSUExampleScenario.node[34].veinsmobility 	totalTime 	268
scalar RSUExampleScenario.node[34].veinsmobility 	stopTime 	350
scalar RSUExampleScenario.node[34].veinsmobility 	minSpeed 	0
scalar RSUExampleScenario.node[34].veinsmobility 	maxSpeed 	13.999671046434
scalar RSUExampleScenario.node[34].veinsmobility 	totalDistance 	1967.1897636412
scalar RSUExampleScenario.node[34].veinsmobility 	totalCO2Emission 	524.91443935821
scalar RSUExampleScenario.node[35].veinsmobility 	startTime 	84.4
scalar RSUExampleScenario.node[35].veinsmobility 	totalTime 	265.6
scalar RSUExampleScenario.node[35].veinsmobility 	stopTime 	350
scalar RSUExampleScenario.node[35].veinsmobility 	minSpeed 	0
scalar RSUExampleScenario.node[35].veinsmobility 	maxSpeed 	13.99994980182
scalar RSUExampleScenario.node[35].veinsmobility 	totalDistance 	1933.2216503137
scalar RSUExampleScenario.node[35].veinsmobility 	totalCO2Emission 	519.19697642021
scalar RSUExampleScenario.node[36].veinsmobility 	startTime 	86.8
scalar RSUExampleScenario.node[36].veinsmobility 	totalTime 	263.2
scalar RSUExampleScenario.node[36].veinsmobility 	stopTime 	350
scalar RSUExampleScenario.node[36].veinsmobility 	minSpeed 	0
scalar RSUExampleScenario.node[36].veinsmobility 	maxSpeed 	13.99994637612
scalar RSUExampleScenario.node[36].veinsmobility 	totalDistance 	1898.806427564
scalar RSUExampleScenario.node[36].veinsmobility 	totalCO2Emission 	513.40812677153
scalar RSUExampleScenario.node[37].veinsmobility 	startTime 	89.2
scalar RSUExampleScenario.node[37].veinsmobility 	totalTime 	260.8
scalar RSUExampleScenario.node[37].veinsmobility 	stopTime 	350
scalar RSUExampleScenario.node[37].veinsmobility 	minSpeed 	0
scalar RSUExampleScenario.node[37].veinsmobility 	maxSpeed 	13.999812820095
scalar RSUExampleScenario.node[37].veinsmobility 	totalDistance 	1864.3145704412
scalar RSUExampleScenario.node[37].veinsmobility 	totalCO2Emission 	507.54795649295
scalar RSUExampleScenario.node[38].veinsmobility 	startTime 	91.6
scalar RSUExampleScenario.node[38].veinsmobility 	totalTime 	258.4
scalar RSUExampleScenario.node[38].veinsmobility 	stopTime 	350
scalar RSUExampleScenario.node[38].veinsmobility 	minSpeed 	0
scalar RSUExampleScenario.node[38].veinsmobility 	maxSpeed 	13.999970629402
scalar RSUExampleScenario.node[38].veinsmobility 	totalDistance 	1831.4146544708
scalar RSUExampleScenario.node[38].veinsmobility 	totalCO2Emission 	498.69332132194
scalar RSUExampleScenario.node[39].veinsmobility 	startTime 	94
scalar RSUExampleScenario.node[39].veinsmobility 	totalTime 	256
scalar RSUExampleScenario.node[39].veinsmobility 	stopTime 	350
scalar RSUExampleScenario.node[39].veinsmobility 	minSpeed 	0
scalar RSUExampleScenario.node[39].veinsmobility 	maxSpeed 	13.999884088635
scalar RSUExampleScenario.node[39].veinsmobility 	totalDistance 	1797.4426138581
scalar RSUExampleScenario.node[39].veinsmobility 	totalCO2Emission 	496.90560247887
scalar RSUExampleScenario.node[4].veinsmobility 	startTime 	9.7
scalar RSUExampleScenario.node[4].veinsmobility 	totalTime 	340.3
scalar RSUExampleScenario.node[4].veinsmobility 	stopTime 	350
scalar RSUExampleScenario.node[4].veinsmobility 	minSpeed 	0
scalar RSUExampleScenario.node[4].veinsmobility 	maxSpeed 	13.999965416286
scalar RSUExampleScenario.node[4].veinsmobility 	totalDistance 	2945.9087692335
scalar RSUExampleScenario.node[4].veinsmobility 	totalCO2Emission 	702.00315548329
scalar RSUExampleScenario.node[40].veinsmobility 	startTime 	96.5
scalar RSUExampleScenario.node[40].veinsmobility 	totalTime 	253.5
scalar RSUExampleScenario.node[40].veinsmobility 	stopTime 	350
scalar RSUExampleScenario.node[40].veinsmobility 	minSpeed 	0
scalar RSUExampleScenario.node[40].veinsmobility 	maxSpeed 	13.999838802556
scalar RSUExampleScenario.node[40].veinsmobility 	totalDistance 	1763.1367102256
scalar RSUExampleScenario.node[40].veinsmobility 	totalCO2Emission 	489.67266012543
scalar RSUExampleScenario.node[41].veinsmobility 	startTime 	98.9
scalar RSUExampleScenario.node[41].veinsmobility 	totalTime 	251.1
scalar RSUExampleScenario.node[41].veinsmobility 	stopTime 	350
scalar RSUExampleScenario.node[41].veinsmobility 	minSpeed 	0
scalar RSUExampleScenario.node[41].veinsmobility 	maxSpeed 	13.999939324709
scalar RSUExampleScenario.node[41].veinsmobility 	totalDistance 	1729.5629538866
scalar RSUExampleScenario.node[41].veinsmobility 	totalCO2Emission 	481.69482886129
scalar RSUExampleScenario.node[42].veinsmobility 	startTime 	101.3
scalar RSUExampleScenario.node[42].veinsmobility 	totalTime 	248.7
scalar RSUExampleScenario.node[42].veinsmobility 	stopTime 	350
scalar RSUExampleScenario.node[42].veinsmobility 	minSpeed 	0
scalar RSUExampleScenario.node[42].veinsmobility 	maxSpeed 	13.999737526034
scalar RSUExampleScenario.node[42].veinsmobility 	totalDistance 	1697.4411710964
scalar RSUExampleScenario.node[42].veinsmobility 	totalCO2Emission 	480.78770724372
scalar RSUExampleScenario.node[43].veinsmobility 	startTime 	103.7
scalar RSUExampleScenario.node[43].veinsmobility 	totalTime 	246.3
scalar RSUExampleScenario.node[43].veinsmobility 	stopTime 	350
scalar RSUExampleScenario.node[43].veinsmobility 	minSpeed 	0
scalar RSUExampleScenario.node[43].veinsmobility 	maxSpeed 	13.999682160777
scalar RSUExampleScenario.node[43].veinsmobility 	totalDistance 	1661.7624965902
scalar RSUExampleScenario.node[43].veinsmobility 	totalCO2Emission 	471.49611317314
scalar RSUExampleScenario.node[44].veinsmobility 	startTime 	106.1
scalar RSUExampleScenario.node[44].veinsmobility 	totalTime 	243.9
scalar RSUExampleScenario.node[44].veinsmobility 	stopTime 	350
scalar RSUExampleScenario.node[44].veinsmobility 	minSpeed 	0
scalar RSUExampleScenario.node[44].veinsmobility 	maxSpeed 	13.999972832729
scalar RSUExampleScenario.node[44].veinsmobility 	totalDistance 	1628.9940337239
scalar RSUExampleScenario.node[44].veinsmobility 	totalCO2Emission 	465.23664773798
scalar RSUExampleScenario.node[45].veinsmobility 	startTime 	108.5
scalar RSUExampleScenario.node[45].veinsmobility 	totalTime 	241.5
scalar RSUExampleScenario.node[45].veinsmobility 	stopTime 	350
scalar RSUExampleScenario.node[45].veinsmobility 	minSpeed 	0
scalar RSUExampleScenario.node[45].veinsmobility 	maxSpeed 	13.999905850014
scalar RSUExampleScenario.node[45].veinsmobility 	totalDistance 	1594.8626190126
scalar RSUExampleScenario.node[45].veinsmobility 	totalCO2Emission 	460.71757886801
scalar RSUExampleScenario.node[46].veinsmobility 	startTime 	110.9
scalar RSUExampleScenario.node[46].veinsmobility 	totalTime 	239.1
scalar RSUExampleScenario.node[46].veinsmobility 	stopTime 	350
scalar RSUExampleScenario.node[46].veinsmobility 	minSpeed 	0
scalar RSUExampleScenario.node[46].veinsmobility 	maxSpeed 	13.999813855654
scalar RSUExampleScenario.node[46].veinsmobility 	totalDistance 	1561.9054564941
scalar RSUExampleScenario.node[46].veinsmobility 	totalCO2Emission 	457.25041631679
scalar RSUExampleScenario.node[47].veinsmobility 	startTime 	113.3
scalar RSUExampleScenario.node[47].veinsmobility 	totalTime 	236.7
scalar RSUExampleScenario.node[47].veinsmobility 	stopTime 	350
scalar RSUExampleScenario.node[47].veinsmobility 	minSpeed 	0
scalar RSUExampleScenario.node[47].veinsmobility 	maxSpeed 	13.999827612422
scalar RSUExampleScenario.node[47].veinsmobility 	totalDistance 	1527.7932995671
scalar RSUExampleScenario.node[47].veinsmobility 	totalCO2Emission 	450.85613342157
scalar RSUExampleScenario.node[48].veinsmobility 	startTime 	115.7
scalar RSUExampleScenario.node[48].veinsmobility 	totalTime 	234.3
scalar RSUExampleScenario.node[48].veinsmobility 	stopTime 	350
scalar RSUExampleScenario.node[48].veinsmobility 	minSpeed 	0
scalar RSUExampleScenario.node[48].veinsmobility 	maxSpeed 	13.999500141048
scalar RSUExampleScenario.node[48].veinsmobility 	totalDistance 	1494.2950169749
scalar RSUExampleScenario.node[48].veinsmobility 	totalCO2Emission 	441.79502009794
scalar RSUExampleScenario.node[49].veinsmobility 	startTime 	118.1
scalar RSUExampleScenario.node[49].veinsmobility 	totalTime 	231.9
scalar RSUExampleScenario.node[49].veinsmobility 	stopTime 	350
scalar RSUExampleScenario.node[49].veinsmobility 	minSpeed 	0
scalar RSUExampleScenario.node[49].veinsmobility 	maxSpeed 	13.999995207337
scalar RSUExampleScenario.node[49].veinsmobility 	totalDistance 	1461.2913218102
scalar RSUExampleScenario.node[49].veinsmobility 	totalCO2Emission 	438.8650249609
scalar RSUExampleScenario.node[5].veinsmobility 	startTime 	12.1
scalar RSUExampleScenario.node[5].veinsmobility 	totalTime 	337.9
scalar RSUExampleScenario.node[5].veinsmobility 	stopTime 	350
scalar RSUExampleScenario.node[5].veinsmobility 	minSpeed 	0
scalar RSUExampleScenario.node[5].veinsmobility 	maxSpeed 	13.999969430184
scalar RSUExampleScenario.node[5].veinsmobility 	totalDistance 	2918.8757606443
scalar RSUExampleScenario.node[5].veinsmobility 	totalCO2Emission 	686.56822941363
scalar RSUExampleScenario.node[50].veinsmobility 	startTime 	120.6
scalar RSUExampleScenario.node[50].veinsmobility 	totalTime 	229.4
scalar RSUExampleScenario.node[50].veinsmobility 	stopTime 	350
scalar RSUExampleScenario.node[50].veinsmobility 	minSpeed 	0
scalar RSUExampleScenario.node[50].veinsmobility 	maxSpeed 	13.999913637664
scalar RSUExampleScenario.node[50].veinsmobility 	totalDistance 	1428.3220049811
scalar RSUExampleScenario.node[50].veinsmobility 	totalCO2Emission 	432.55453092074
scalar RSUExampleScenario.node[51].veinsmobility 	startTime 	123
scalar RSUExampleScenario.node[51].veinsmobility 	totalTime 	227
scalar RSUExampleScenario.node[51].veinsmobility 	stopTime 	350
scalar RSUExampleScenario.node[51].veinsmobility 	minSpeed 	0
scalar RSUExampleScenario.node[51].veinsmobility 	maxSpeed 	13.999969282749
scalar RSUExampleScenario.node[51].veinsmobility 	totalDistance 	1395.2773253772
scalar RSUExampleScenario.node[51].veinsmobility 	totalCO2Emission 	427.69596607405
scalar RSUExampleScenario.node[52].veinsmobility 	startTime 	125.4
scalar RSUExampleScenario.node[52].veinsmobility 	totalTime 	224.6
scalar RSUExampleScenario.node[52].veinsmobility 	stopTime 	350
scalar RSUExampleScenario.node[52].veinsmobility 	minSpeed 	0
scalar RSUExampleScenario.node[52].veinsmobility 	maxSpeed 	13.999998346672
scalar RSUExampleScenario.node[52].veinsmobility 	totalDistance 	1361.5003776296
scalar RSUExampleScenario.node[52].veinsmobility 	totalCO2Emission 	421.36991522177
scalar RSUExampleScenario.node[53].veinsmobility 	startTime 	127.8
scalar RSUExampleScenario.node[53].veinsmobility 	totalTime 	222.2
scalar RSUExampleScenario.node[53].veinsmobility 	stopTime 	350
scalar RSUExampleScenario.node[53].veinsmobility 	minSpeed 	0
scalar RSUExampleScenario.node[53].veinsmobility 	maxSpeed 	13.999922705044
scalar RSUExampleScenario.node[53].veinsmobility 	totalDistance 	1328.037773149
scalar RSUExampleScenario.node[53].veinsmobility 	totalCO2Emission 	415.925241265
scalar RSUExampleScenario.node[54].veinsmobility 	startTime 	130.2
scalar RSUExampleScenario.node[54].veinsmobility 	totalTime 	219.8
scalar RSUExampleScenario.node[54].veinsmobility 	stopTime 	350
scalar RSUExampleScenario.node[54].veinsmobility 	minSpeed 	0
scalar RSUExampleScenario.node[54].veinsmobility 	maxSpeed 	13.999272287481
scalar RSUExampleScenario.node[54].veinsmobility 	totalDistance 	1295.3146999963
scalar RSUExampleScenario.node[54].veinsmobility 	totalCO2Emission 	408.32397506945
scalar RSUExampleScenario.node[55].veinsmobility 	startTime 	132.6
scalar RSUExampleScenario.node[55].veinsmobility 	totalTime 	217.4
scalar RSUExampleScenario.node[55].veinsmobility 	stopTime 	350
scalar RSUExampleScenario.node[55].veinsmobility 	minSpeed 	0
scalar RSUExampleScenario.node[55].veinsmobility 	maxSpeed 	13.999735910117
scalar RSUExampleScenario.node[55].veinsmobility 	totalDistance 	1259.1053976483
scalar RSUExampleScenario.node[55].veinsmobility 	totalCO2Emission 	405.29790943523
scalar RSUExampleScenario.node[56].veinsmobility 	startTime 	135
scalar RSUExampleScenario.node[56].veinsmobility 	totalTime 	215
scalar RSUExampleScenario.node[56].veinsmobility 	stopTime 	350
scalar RSUExampleScenario.node[56].veinsmobility 	minSpeed 	0
scalar RSUExampleScenario.node[56].veinsmobility 	maxSpeed 	13.999972640891
scalar RSUExampleScenario.node[56].veinsmobility 	totalDistance 	1226.0736422116
scalar RSUExampleScenario.node[56].veinsmobility 	totalCO2Emission 	399.42119440417
scalar RSUExampleScenario.node[57].veinsmobility 	startTime 	137.4
scalar RSUExampleScenario.node[57].veinsmobility 	totalTime 	212.6
scalar RSUExampleScenario.node[57].veinsmobility 	stopTime 	350
scalar RSUExampleScenario.node[57].veinsmobility 	minSpeed 	0
scalar RSUExampleScenario.node[57].veinsmobility 	maxSpeed 	13.999332997429
scalar RSUExampleScenario.node[57].veinsmobility 	totalDistance 	1191.4076612647
scalar RSUExampleScenario.node[57].veinsmobility 	totalCO2Emission 	394.25165503837
scalar RSUExampleScenario.node[58].veinsmobility 	startTime 	139.8
scalar RSUExampleScenario.node[58].veinsmobility 	totalTime 	210.2
scalar RSUExampleScenario.node[58].veinsmobility 	stopTime 	350
scalar RSUExampleScenario.node[58].veinsmobility 	minSpeed 	0
scalar RSUExampleScenario.node[58].veinsmobility 	maxSpeed 	13.999703644386
scalar RSUExampleScenario.node[58].veinsmobility 	totalDistance 	1159.5447037715
scalar RSUExampleScenario.node[58].veinsmobility 	totalCO2Emission 	387.69843724774
scalar RSUExampleScenario.node[59].veinsmobility 	startTime 	142.2
scalar RSUExampleScenario.node[59].veinsmobility 	totalTime 	207.8
scalar RSUExampleScenario.node[59].veinsmobility 	stopTime 	350
scalar RSUExampleScenario.node[59].veinsmobility 	minSpeed 	0
scalar RSUExampleScenario.node[59].veinsmobility 	maxSpeed 	13.999828112479
scalar RSUExampleScenario.node[59].veinsmobility 	totalDistance 	1125.9378763765
scalar RSUExampleScenario.node[59].veinsmobility 	totalCO2Emission 	381.80062965772
scalar RSUExampleScenario.node[6].veinsmobility 	startTime 	14.5
scalar RSUExampleScenario.node[6].veinsmobility 	totalTime 	335.5
scalar RSUExampleScenario.node[6].veinsmobility 	stopTime 	350
scalar RSUExampleScenario.node[6].veinsmobility 	minSpeed 	0
scalar RSUExampleScenario.node[6].veinsmobility 	maxSpeed 	13.999836944707
scalar RSUExampleScenario.node[6].veinsmobility 	totalDistance 	2902.2533597427
scalar RSUExampleScenario.node[6].veinsmobility 	totalCO2Emission 	682.81254621506
scalar RSUExampleScenario.node[60].veinsmobility 	startTime 	144.7
scalar RSUExampleScenario.node[60].veinsmobility 	totalTime 	205.3
scalar RSUExampleScenario.node[60].veinsmobility 	stopTime 	350
scalar RSUExampleScenario.node[60].veinsmobility 	minSpeed 	0
scalar RSUExampleScenario.node[60].veinsmobility 	maxSpeed 	13.999995158575
scalar RSUExampleScenario.node[60].veinsmobility 	totalDistance 	1091.5512260508
scalar RSUExampleScenario.node[60].veinsmobility 	totalCO2Emission 	376.48796400575
scalar RSUExampleScenario.node[61].veinsmobility 	startTime 	147.1
scalar RSUExampleScenario.node[61].veinsmobility 	totalTime 	202.9
scalar RSUExampleScenario.node[61].veinsmobility 	stopTime 	350
scalar RSUExampleScenario.node[61].veinsmobility 	minSpeed 	0
scalar RSUExampleScenario.node[61].veinsmobility 	maxSpeed 	13.999673041729
scalar RSUExampleScenario.node[61].veinsmobility 	totalDistance 	1057.8954929542
scalar RSUExampleScenario.node[61].veinsmobility 	totalCO2Emission 	371.29159323267
scalar RSUExampleScenario.node[62].veinsmobility 	startTime 	149.5
scalar RSUExampleScenario.node[62].veinsmobility 	totalTime 	200.5
scalar RSUExampleScenario.node[62].veinsmobility 	stopTime 	350
scalar RSUExampleScenario.node[62].veinsmobility 	minSpeed 	0
scalar RSUExampleScenario.node[62].veinsmobility 	maxSpeed 	13.9999926279
scalar RSUExampleScenario.node[62].veinsmobility 	totalDistance 	1023.189551393
scalar RSUExampleScenario.node[62].veinsmobility 	totalCO2Emission 	366.63009770519
scalar RSUExampleScenario.node[63].veinsmobility 	startTime 	151.9
scalar RSUExampleScenario.node[63].veinsmobility 	totalTime 	198.1
scalar RSUExampleScenario.node[63].veinsmobility 	stopTime 	350
scalar RSUExampleScenario.node[63].veinsmobility 	minSpeed 	0
scalar RSUExampleScenario.node[63].veinsmobility 	maxSpeed 	13.999995459258
scalar RSUExampleScenario.node[63].veinsmobility 	totalDistance 	983.86335953976
scalar RSUExampleScenario.node[63].veinsmobility 	totalCO2Emission 	350.50123202284
scalar RSUExampleScenario.node[64].veinsmobility 	startTime 	154.3
scalar RSUExampleScenario.node[64].veinsmobility 	totalTime 	195.7
scalar RSUExampleScenario.node[64].veinsmobility 	stopTime 	350
scalar RSUExampleScenario.node[64].veinsmobility 	minSpeed 	0
scalar RSUExampleScenario.node[64].veinsmobility 	maxSpeed 	13.999404154492
scalar RSUExampleScenario.node[64].veinsmobility 	totalDistance 	953.61165442807
scalar RSUExampleScenario.node[64].veinsmobility 	totalCO2Emission 	337.20018444151
scalar RSUExampleScenario.node[65].veinsmobility 	startTime 	156.7
scalar RSUExampleScenario.node[65].veinsmobility 	totalTime 	193.3
scalar RSUExampleScenario.node[65].veinsmobility 	stopTime 	350
scalar RSUExampleScenario.node[65].veinsmobility 	minSpeed 	0
scalar RSUExampleScenario.node[65].veinsmobility 	maxSpeed 	13.999912249513
scalar RSUExampleScenario.node[65].veinsmobility 	totalDistance 	940.4237975348
scalar RSUExampleScenario.node[65].veinsmobility 	totalCO2Emission 	330.68836032785
scalar RSUExampleScenario.node[66].veinsmobility 	startTime 	159.1
scalar RSUExampleScenario.node[66].veinsmobility 	totalTime 	190.9
scalar RSUExampleScenario.node[66].veinsmobility 	stopTime 	350
scalar RSUExampleScenario.node[66].veinsmobility 	minSpeed 	0
scalar RSUExampleScenario.node[66].veinsmobility 	maxSpeed 	13.999929703576
scalar RSUExampleScenario.node[66].veinsmobility 	totalDistance 	928.24338316305
scalar RSUExampleScenario.node[66].veinsmobility 	totalCO2Emission 	327.5326704548
scalar RSUExampleScenario.node[67].veinsmobility 	startTime 	161.5
scalar RSUExampleScenario.node[67].veinsmobility 	totalTime 	188.5
scalar RSUExampleScenario.node[67].veinsmobility 	stopTime 	350
scalar RSUExampleScenario.node[67].veinsmobility 	minSpeed 	0
scalar RSUExampleScenario.node[67].veinsmobility 	maxSpeed 	13.999899135577
scalar RSUExampleScenario.node[67].veinsmobility 	totalDistance 	912.76940846715
scalar RSUExampleScenario.node[67].veinsmobility 	totalCO2Emission 	325.01907279459
scalar RSUExampleScenario.node[68].veinsmobility 	startTime 	163.9
scalar RSUExampleScenario.node[68].veinsmobility 	totalTime 	186.1
scalar RSUExampleScenario.node[68].veinsmobility 	stopTime 	350
scalar RSUExampleScenario.node[68].veinsmobility 	minSpeed 	0
scalar RSUExampleScenario.node[68].veinsmobility 	maxSpeed 	13.999561684304
scalar RSUExampleScenario.node[68].veinsmobility 	totalDistance 	891.66166922003
scalar RSUExampleScenario.node[68].veinsmobility 	totalCO2Emission 	322.0857432634
scalar RSUExampleScenario.node[69].veinsmobility 	startTime 	166.3
scalar RSUExampleScenario.node[69].veinsmobility 	totalTime 	183.7
scalar RSUExampleScenario.node[69].veinsmobility 	stopTime 	350
scalar RSUExampleScenario.node[69].veinsmobility 	minSpeed 	0
scalar RSUExampleScenario.node[69].veinsmobility 	maxSpeed 	13.99960320214
scalar RSUExampleScenario.node[69].veinsmobility 	totalDistance 	858.32262552405
scalar RSUExampleScenario.node[69].veinsmobility 	totalCO2Emission 	317.16684370037
scalar RSUExampleScenario.node[7].veinsmobility 	startTime 	16.9
scalar RSUExampleScenario.node[7].veinsmobility 	totalTime 	333.1
scalar RSUExampleScenario.node[7].veinsmobility 	stopTime 	350
scalar RSUExampleScenario.node[7].veinsmobility 	minSpeed 	0
scalar RSUExampleScenario.node[7].veinsmobility 	maxSpeed 	13.999917785951
scalar RSUExampleScenario.node[7].veinsmobility 	totalDistance 	2890.1893783834
scalar RSUExampleScenario.node[7].veinsmobility 	totalCO2Emission 	682.33620875125
scalar RSUExampleScenario.node[70].veinsmobility 	startTime 	168.8
scalar RSUExampleScenario.node[70].veinsmobility 	totalTime 	181.2
scalar RSUExampleScenario.node[70].veinsmobility 	stopTime 	350
scalar RSUExampleScenario.node[70].veinsmobility 	minSpeed 	0
scalar RSUExampleScenario.node[70].veinsmobility 	maxSpeed 	13.999723799231
scalar RSUExampleScenario.node[70].veinsmobility 	totalDistance 	824.40077434145
scalar RSUExampleScenario.node[70].veinsmobility 	totalCO2Emission 	310.72472942596
scalar RSUExampleScenario.node[71].veinsmobility 	startTime 	171.2
scalar RSUExampleScenario.node[71].veinsmobility 	totalTime 	178.8
scalar RSUExampleScenario.node[71].veinsmobility 	stopTime 	350
scalar RSUExampleScenario.node[71].veinsmobility 	minSpeed 	0
scalar RSUExampleScenario.node[71].veinsmobility 	maxSpeed 	13.999845520596
scalar RSUExampleScenario.node[71].veinsmobility 	totalDistance 	791.75919444916
scalar RSUExampleScenario.node[71].veinsmobility 	totalCO2Emission 	303.99367697805
scalar RSUExampleScenario.node[72].veinsmobility 	startTime 	173.6
scalar RSUExampleScenario.node[72].veinsmobility 	totalTime 	176.4
scalar RSUExampleScenario.node[72].veinsmobility 	stopTime 	350
scalar RSUExampleScenario.node[72].veinsmobility 	minSpeed 	0
scalar RSUExampleScenario.node[72].veinsmobility 	maxSpeed 	13.999712531581
scalar RSUExampleScenario.node[72].veinsmobility 	totalDistance 	758.74134181895
scalar RSUExampleScenario.node[72].veinsmobility 	totalCO2Emission 	298.45168040108
scalar RSUExampleScenario.node[73].veinsmobility 	startTime 	176
scalar RSUExampleScenario.node[73].veinsmobility 	totalTime 	174
scalar RSUExampleScenario.node[73].veinsmobility 	stopTime 	350
scalar RSUExampleScenario.node[73].veinsmobility 	minSpeed 	0
scalar RSUExampleScenario.node[73].veinsmobility 	maxSpeed 	13.999852138993
scalar RSUExampleScenario.node[73].veinsmobility 	totalDistance 	724.52898903631
scalar RSUExampleScenario.node[73].veinsmobility 	totalCO2Emission 	293.55720070629
scalar RSUExampleScenario.node[74].veinsmobility 	startTime 	178.4
scalar RSUExampleScenario.node[74].veinsmobility 	totalTime 	171.6
scalar RSUExampleScenario.node[74].veinsmobility 	stopTime 	350
scalar RSUExampleScenario.node[74].veinsmobility 	minSpeed 	0
scalar RSUExampleScenario.node[74].veinsmobility 	maxSpeed 	13.999785322116
scalar RSUExampleScenario.node[74].veinsmobility 	totalDistance 	691.16066258401
scalar RSUExampleScenario.node[74].veinsmobility 	totalCO2Emission 	288.20456944148
scalar RSUExampleScenario.node[75].veinsmobility 	startTime 	180.8
scalar RSUExampleScenario.node[75].veinsmobility 	totalTime 	169.2
scalar RSUExampleScenario.node[75].veinsmobility 	stopTime 	350
scalar RSUExampleScenario.node[75].veinsmobility 	minSpeed 	0
scalar RSUExampleScenario.node[75].veinsmobility 	maxSpeed 	13.999760601255
scalar RSUExampleScenario.node[75].veinsmobility 	totalDistance 	657.1404219407
scalar RSUExampleScenario.node[75].veinsmobility 	totalCO2Emission 	280.59853455788
scalar RSUExampleScenario.node[76].veinsmobility 	startTime 	183.2
scalar RSUExampleScenario.node[76].veinsmobility 	totalTime 	166.8
scalar RSUExampleScenario.node[76].veinsmobility 	stopTime 	350
scalar RSUExampleScenario.node[76].veinsmobility 	minSpeed 	0
scalar RSUExampleScenario.node[76].veinsmobility 	maxSpeed 	13.999782259481
scalar RSUExampleScenario.node[76].veinsmobility 	totalDistance 	624.2404162454
scalar RSUExampleScenario.node[76].veinsmobility 	totalCO2Emission 	275.54956042354
scalar RSUExampleScenario.node[77].veinsmobility 	startTime 	185.6
scalar RSUExampleScenario.node[77].veinsmobility 	totalTime 	164.4
scalar RSUExampleScenario.node[77].veinsmobility 	stopTime 	350
scalar RSUExampleScenario.node[77].veinsmobility 	minSpeed 	0
scalar RSUExampleScenario.node[77].veinsmobility 	maxSpeed 	13.998936464838
scalar RSUExampleScenario.node[77].veinsmobility 	totalDistance 	591.47542216299
scalar RSUExampleScenario.node[77].veinsmobility 	totalCO2Emission 	270.60060693172
scalar RSUExampleScenario.node[78].veinsmobility 	startTime 	188
scalar RSUExampleScenario.node[78].veinsmobility 	totalTime 	162
scalar RSUExampleScenario.node[78].veinsmobility 	stopTime 	350
scalar RSUExampleScenario.node[78].veinsmobility 	minSpeed 	0
scalar RSUExampleScenario.node[78].veinsmobility 	maxSpeed 	13.999849001626
scalar RSUExampleScenario.node[78].veinsmobility 	totalDistance 	557.94873887828
scalar RSUExampleScenario.node[78].veinsmobility 	totalCO2Emission 	264.37996601191
scalar RSUExampleScenario.node[79].veinsmobility 	startTime 	190.4
scalar RSUExampleScenario.node[79].veinsmobility 	totalTime 	159.6
scalar RSUExampleScenario.node[79].veinsmobility 	stopTime 	350
scalar RSUExampleScenario.node[79].veinsmobility 	minSpeed 	0
scalar RSUExampleScenario.node[79].veinsmobility 	maxSpeed 	13.997182375223
scalar RSUExampleScenario.node[79].veinsmobility 	totalDistance 	524.1910773292
scalar RSUExampleScenario.node[79].veinsmobility 	totalCO2Emission 	259.74881641838
scalar RSUExampleScenario.node[8].veinsmobility 	startTime 	19.3
scalar RSUExampleScenario.node[8].veinsmobility 	totalTime 	330.7
scalar RSUExampleScenario.node[8].veinsmobility 	stopTime 	350
scalar RSUExampleScenario.node[8].veinsmobility 	minSpeed 	0
scalar RSUExampleScenario.node[8].veinsmobility 	maxSpeed 	13.99993367861
scalar RSUExampleScenario.node[8].veinsmobility 	totalDistance 	2860.607841166
scalar RSUExampleScenario.node[8].veinsmobility 	totalCO2Emission 	674.20096581033
scalar RSUExampleScenario.node[80].veinsmobility 	startTime 	192.9
scalar RSUExampleScenario.node[80].veinsmobility 	totalTime 	157.1
scalar RSUExampleScenario.node[80].veinsmobility 	stopTime 	350
scalar RSUExampleScenario.node[80].veinsmobility 	minSpeed 	0
scalar RSUExampleScenario.node[80].veinsmobility 	maxSpeed 	13.999252301229
scalar RSUExampleScenario.node[80].veinsmobility 	totalDistance 	492.23541664348
scalar RSUExampleScenario.node[80].veinsmobility 	totalCO2Emission 	253.41884833111
scalar RSUExampleScenario.node[81].veinsmobility 	startTime 	195.3
scalar RSUExampleScenario.node[81].veinsmobility 	totalTime 	154.7
scalar RSUExampleScenario.node[81].veinsmobility 	stopTime 	350
scalar RSUExampleScenario.node[81].veinsmobility 	minSpeed 	0
scalar RSUExampleScenario.node[81].veinsmobility 	maxSpeed 	13.999806236203
scalar RSUExampleScenario.node[81].veinsmobility 	totalDistance 	456.12758393606
scalar RSUExampleScenario.node[81].veinsmobility 	totalCO2Emission 	247.9555149907
scalar RSUExampleScenario.node[82].veinsmobility 	startTime 	197.7
scalar RSUExampleScenario.node[82].veinsmobility 	totalTime 	152.3
scalar RSUExampleScenario.node[82].veinsmobility 	stopTime 	350
scalar RSUExampleScenario.node[82].veinsmobility 	minSpeed 	0
scalar RSUExampleScenario.node[82].veinsmobility 	maxSpeed 	13.995369381267
scalar RSUExampleScenario.node[82].veinsmobility 	totalDistance 	422.73230927981
scalar RSUExampleScenario.node[82].veinsmobility 	totalCO2Emission 	242.33031909104
scalar RSUExampleScenario.node[83].veinsmobility 	startTime 	200.1
scalar RSUExampleScenario.node[83].veinsmobility 	totalTime 	149.9
scalar RSUExampleScenario.node[83].veinsmobility 	stopTime 	350
scalar RSUExampleScenario.node[83].veinsmobility 	minSpeed 	0
scalar RSUExampleScenario.node[83].veinsmobility 	maxSpeed 	13.998058201275
scalar RSUExampleScenario.node[83].veinsmobility 	totalDistance 	388.74951649096
scalar RSUExampleScenario.node[83].veinsmobility 	totalCO2Emission 	237.15646243538
scalar RSUExampleScenario.node[84].veinsmobility 	startTime 	202.5
scalar RSUExampleScenario.node[84].veinsmobility 	totalTime 	147.5
scalar RSUExampleScenario.node[84].veinsmobility 	stopTime 	350
scalar RSUExampleScenario.node[84].veinsmobility 	minSpeed 	0
scalar RSUExampleScenario.node[84].veinsmobility 	maxSpeed 	13.998376812181
scalar RSUExampleScenario.node[84].veinsmobility 	totalDistance 	354.44547541005
scalar RSUExampleScenario.node[84].veinsmobility 	totalCO2Emission 	230.14172357394
scalar RSUExampleScenario.node[85].veinsmobility 	startTime 	204.9
scalar RSUExampleScenario.node[85].veinsmobility 	totalTime 	145.1
scalar RSUExampleScenario.node[85].veinsmobility 	stopTime 	350
scalar RSUExampleScenario.node[85].veinsmobility 	minSpeed 	0
scalar RSUExampleScenario.node[85].veinsmobility 	maxSpeed 	13.995821314256
scalar RSUExampleScenario.node[85].veinsmobility 	totalDistance 	322.03713907325
scalar RSUExampleScenario.node[85].veinsmobility 	totalCO2Emission 	225.61698562986
scalar RSUExampleScenario.node[86].veinsmobility 	startTime 	207.3
scalar RSUExampleScenario.node[86].veinsmobility 	totalTime 	142.7
scalar RSUExampleScenario.node[86].veinsmobility 	stopTime 	350
scalar RSUExampleScenario.node[86].veinsmobility 	minSpeed 	0
scalar RSUExampleScenario.node[86].veinsmobility 	maxSpeed 	13.877339407238
scalar RSUExampleScenario.node[86].veinsmobility 	totalDistance 	289.05431409874
scalar RSUExampleScenario.node[86].veinsmobility 	totalCO2Emission 	219.53309279207
scalar RSUExampleScenario.node[87].veinsmobility 	startTime 	209.7
scalar RSUExampleScenario.node[87].veinsmobility 	totalTime 	140.3
scalar RSUExampleScenario.node[87].veinsmobility 	stopTime 	350
scalar RSUExampleScenario.node[87].veinsmobility 	minSpeed 	0
scalar RSUExampleScenario.node[87].veinsmobility 	maxSpeed 	13.820941996127
scalar RSUExampleScenario.node[87].veinsmobility 	totalDistance 	248.9627138713
scalar RSUExampleScenario.node[87].veinsmobility 	totalCO2Emission 	200.99612478077
scalar RSUExampleScenario.node[88].veinsmobility 	startTime 	212.1
scalar RSUExampleScenario.node[88].veinsmobility 	totalTime 	137.9
scalar RSUExampleScenario.node[88].veinsmobility 	stopTime 	350
scalar RSUExampleScenario.node[88].veinsmobility 	minSpeed 	0
scalar RSUExampleScenario.node[88].veinsmobility 	maxSpeed 	13.857168341215
scalar RSUExampleScenario.node[88].veinsmobility 	totalDistance 	226.02204014903
scalar RSUExampleScenario.node[88].veinsmobility 	totalCO2Emission 	190.03735856499
scalar RSUExampleScenario.node[89].veinsmobility 	startTime 	214.5
scalar RSUExampleScenario.node[89].veinsmobility 	totalTime 	135.5
scalar RSUExampleScenario.node[89].veinsmobility 	stopTime 	350
scalar RSUExampleScenario.node[89].veinsmobility 	minSpeed 	0
scalar RSUExampleScenario.node[89].veinsmobility 	maxSpeed 	13.74834337103
scalar RSUExampleScenario.node[89].veinsmobility 	totalDistance 	215.39699006621
scalar RSUExampleScenario.node[89].veinsmobility 	totalCO2Emission 	184.92258312113
scalar RSUExampleScenario.node[9].veinsmobility 	startTime 	21.7
scalar RSUExampleScenario.node[9].veinsmobility 	totalTime 	328.3
scalar RSUExampleScenario.node[9].veinsmobility 	stopTime 	350
scalar RSUExampleScenario.node[9].veinsmobility 	minSpeed 	0
scalar RSUExampleScenario.node[9].veinsmobility 	maxSpeed 	13.999963910182
scalar RSUExampleScenario.node[9].veinsmobility 	totalDistance 	2828.7797230507
scalar RSUExampleScenario.node[9].veinsmobility 	totalCO2Emission 	666.6088961839
scalar RSUExampleScenario.node[90].veinsmobility 	startTime 	217
scalar RSUExampleScenario.node[90].veinsmobility 	totalTime 	133
scalar RSUExampleScenario.node[90].veinsmobility 	stopTime 	350
scalar RSUExampleScenario.node[90].veinsmobility 	minSpeed 	0
scalar RSUExampleScenario.node[90].veinsmobility 	maxSpeed 	13.850047276344
scalar RSUExampleScenario.node[90].veinsmobility 	totalDistance 	202.37582964469
scalar RSUExampleScenario.node[90].veinsmobility 	totalCO2Emission 	182.20819435628
scalar RSUExampleScenario.node[91].veinsmobility 	startTime 	219.4
scalar RSUExampleScenario.node[91].veinsmobility 	totalTime 	130.6
scalar RSUExampleScenario.node[91].veinsmobility 	stopTime 	350
scalar RSUExampleScenario.node[91].veinsmobility 	minSpeed 	0
scalar RSUExampleScenario.node[91].veinsmobility 	maxSpeed 	13.868736332033
scalar RSUExampleScenario.node[91].veinsmobility 	totalDistance 	185.37921771748
scalar RSUExampleScenario.node[91].veinsmobility 	totalCO2Emission 	180.65361658744
scalar RSUExampleScenario.node[92].veinsmobility 	startTime 	221.8
scalar RSUExampleScenario.node[92].veinsmobility 	totalTime 	128.2
scalar RSUExampleScenario.node[92].veinsmobility 	stopTime 	350
scalar RSUExampleScenario.node[92].veinsmobility 	minSpeed 	0
scalar RSUExampleScenario.node[92].veinsmobility 	maxSpeed 	13.819025842891
scalar RSUExampleScenario.node[92].veinsmobility 	totalDistance 	150.29510434616
scalar RSUExampleScenario.node[92].veinsmobility 	totalCO2Emission 	166.53646100666
scalar RSUExampleScenario.node[93].veinsmobility 	startTime 	224.2
scalar RSUExampleScenario.node[93].veinsmobility 	totalTime 	125.8
scalar RSUExampleScenario.node[93].veinsmobility 	stopTime 	350
scalar RSUExampleScenario.node[93].veinsmobility 	minSpeed 	0
scalar RSUExampleScenario.node[93].veinsmobility 	maxSpeed 	13.73409350436
scalar RSUExampleScenario.node[93].veinsmobility 	totalDistance 	123.74737809784
scalar RSUExampleScenario.node[93].veinsmobility 	totalCO2Emission 	153.78812914332
scalar RSUExampleScenario.node[94].veinsmobility 	startTime 	226.6
scalar RSUExampleScenario.node[94].veinsmobility 	totalTime 	123.4
scalar RSUExampleScenario.node[94].veinsmobility 	stopTime 	350
scalar RSUExampleScenario.node[94].veinsmobility 	minSpeed 	0
scalar RSUExampleScenario.node[94].veinsmobility 	maxSpeed 	13.876085751757
scalar RSUExampleScenario.node[94].veinsmobility 	totalDistance 	112.37935735715
scalar RSUExampleScenario.node[94].veinsmobility 	totalCO2Emission 	148.70146009709
scalar RSUExampleScenario.node[95].veinsmobility 	startTime 	229
scalar RSUExampleScenario.node[95].veinsmobility 	totalTime 	121
scalar RSUExampleScenario.node[95].veinsmobility 	stopTime 	350
scalar RSUExampleScenario.node[95].veinsmobility 	minSpeed 	0
scalar RSUExampleScenario.node[95].veinsmobility 	maxSpeed 	13.856600399543
scalar RSUExampleScenario.node[95].veinsmobility 	totalDistance 	99.120428245681
scalar RSUExampleScenario.node[95].veinsmobility 	totalCO2Emission 	145.06327302726
scalar RSUExampleScenario.node[96].veinsmobility 	startTime 	231.4
scalar RSUExampleScenario.node[96].veinsmobility 	totalTime 	118.6
scalar RSUExampleScenario.node[96].veinsmobility 	stopTime 	350
scalar RSUExampleScenario.node[96].veinsmobility 	minSpeed 	0
scalar RSUExampleScenario.node[96].veinsmobility 	maxSpeed 	13.886709660115
scalar RSUExampleScenario.node[96].veinsmobility 	totalDistance 	83.176623996355
scalar RSUExampleScenario.node[96].veinsmobility 	totalCO2Emission 	142.82933407467
scalar RSUExampleScenario.node[97].veinsmobility 	startTime 	233.8
scalar RSUExampleScenario.node[97].veinsmobility 	totalTime 	116.2
scalar RSUExampleScenario.node[97].veinsmobility 	stopTime 	350
scalar RSUExampleScenario.node[97].veinsmobility 	minSpeed 	0
scalar RSUExampleScenario.node[97].veinsmobility 	maxSpeed 	12.904353778411
scalar RSUExampleScenario.node[97].veinsmobility 	totalDistance 	59.339040446898
scalar RSUExampleScenario.node[97].veinsmobility 	totalCO2Emission 	136.51240511107
scalar RSUExampleScenario.node[98].veinsmobility 	startTime 	236.2
scalar RSUExampleScenario.node[98].veinsmobility 	totalTime 	113.8
scalar RSUExampleScenario.node[98].veinsmobility 	stopTime 	350
scalar RSUExampleScenario.node[98].veinsmobility 	minSpeed 	0
scalar RSUExampleScenario.node[98].veinsmobility 	maxSpeed 	7.7184396242138
scalar RSUExampleScenario.node[98].veinsmobility 	totalDistance 	21.82778638122
scalar RSUExampleScenario.node[98].veinsmobility 	totalCO2Emission 	119.29184093317
scalar RSUExampleScenario.node[99].veinsmobility 	startTime 	238.6
scalar RSUExampleScenario.node[99].veinsmobility 	totalTime 	111.4
scalar RSUExampleScenario.node[99].veinsmobility 	stopTime 	350
scalar RSUExampleScenario.node[99].veinsmobility 	minSpeed 	0
scalar RSUExampleScenario.node[99].veinsmobility 	maxSpeed 	2.9419669111721
scalar RSUExampleScenario.node[99].veinsmobility 	totalDistance 	3.1556474582618
scalar RSUExampleScenario.node[99].veinsmobility 	totalCO2Emission 	109.68887498464
