version 2
run statistic5-550-20150313-19:39:20-21892
attr c 9
attr configname statistic5
attr datetime 20150313-19:39:20
attr experiment statistic5
attr inifile omnetpp.ini
attr iterationvars "$p=1/5, $c=9"
attr iterationvars2 "$p=1/5, $c=9, $repetition=50"
attr measurement "$p=1/5, $c=9"
attr network RSUExampleScenario
attr p 1/5
attr processid 21892
attr repetition 50
attr replication #50
attr resultdir results
attr runnumber 550
attr seedset 550

scalar . 	c 	9
scalar RSUExampleScenario.rsu[0].appl 	NumberofCH 	22
scalar RSUExampleScenario.rsu[0].appl 	NumberofON 	78
scalar RSUExampleScenario.rsu[0].appl 	NumberofFN 	0
scalar RSUExampleScenario.rsu[0].appl 	meanClusterNodes 	22
scalar RSUExampleScenario.rsu[0].appl 	varClusterNodes 	4.6904157598234
scalar RSUExampleScenario.rsu[0].appl 	sumCHutility 	745.04539027597
scalar RSUExampleScenario.rsu[0].appl 	meanCHutility 	22
scalar RSUExampleScenario.rsu[0].appl 	varCHutility 	4.6904157598234
scalar RSUExampleScenario.rsu[0].appl 	sumDiffCHutility 	3.4102222282317
scalar RSUExampleScenario.rsu[0].appl 	meanDiffCHutility 	22
scalar RSUExampleScenario.rsu[0].appl 	varDiffCHutility 	4.6904157598234
scalar RSUExampleScenario.rsu[0].appl 	expectedCHutility 	748.4556125042
scalar RSUExampleScenario.rsu[0].appl 	meanExpectedCHutility 	22
scalar RSUExampleScenario.rsu[0].appl 	varExpectedCHutility 	4.6904157598234
