version 2
run statistic-569-20150306-01:35:55-10652
attr c 8
attr configname statistic
attr datetime 20150306-01:35:55
attr experiment statistic
attr inifile omnetpp.ini
attr iterationvars "$p=1/8, $c=8"
attr iterationvars2 "$p=1/8, $c=8, $repetition=69"
attr measurement "$p=1/8, $c=8"
attr network RSUExampleScenario
attr p 1/8
attr processid 10652
attr repetition 69
attr replication #69
attr resultdir results
attr runnumber 569
attr seedset 569

scalar . 	c 	8
scalar RSUExampleScenario.rsu[0].appl 	NumberofCH 	8
scalar RSUExampleScenario.rsu[0].appl 	NumberofON 	64
scalar RSUExampleScenario.rsu[0].appl 	NumberofFN 	28
scalar RSUExampleScenario.rsu[0].appl 	meanClusterNodes 	8
scalar RSUExampleScenario.rsu[0].appl 	varClusterNodes 	0
scalar RSUExampleScenario.rsu[0].appl 	GSScycles 	10
