version 2
run statisticLeach-278-20150323-06:03:00-10692
attr c 17
attr configname statisticLeach
attr datetime 20150323-06:03:00
attr experiment statisticLeach
attr inifile omnetpp.ini
attr iterationvars "$p=1/15, $c=17"
attr iterationvars2 "$p=1/15, $c=17, $repetition=8"
attr measurement "$p=1/15, $c=17"
attr network RSUExampleScenario
attr p 1/15
attr processid 10692
attr repetition 8
attr replication #8
attr resultdir results
attr runnumber 278
attr seedset 278

scalar . 	c 	17
scalar RSUExampleScenario.node[0].appl 	meanClusterNodes 	2
scalar RSUExampleScenario.node[0].appl 	meanClusterHeadUtility 	8.304101633748
scalar RSUExampleScenario.node[0].appl 	NumberofCH 	0.10810810810811
scalar RSUExampleScenario.node[0].appl 	NumberofON 	0.43243243243243
scalar RSUExampleScenario.node[0].appl 	NumberofFN 	0.45945945945946
scalar RSUExampleScenario.node[0].veinsmobility 	startTime 	0.1
scalar RSUExampleScenario.node[0].veinsmobility 	totalTime 	449.9
scalar RSUExampleScenario.node[0].veinsmobility 	stopTime 	450
scalar RSUExampleScenario.node[0].veinsmobility 	minSpeed 	0
scalar RSUExampleScenario.node[0].veinsmobility 	maxSpeed 	13.999985655972
scalar RSUExampleScenario.node[0].veinsmobility 	totalDistance 	3130.2887114829
scalar RSUExampleScenario.node[0].veinsmobility 	totalCO2Emission 	841.69308109819
scalar RSUExampleScenario.node[1].appl 	meanClusterNodes 	2.5
scalar RSUExampleScenario.node[1].appl 	meanClusterHeadUtility 	9.8681601523848
scalar RSUExampleScenario.node[1].appl 	NumberofCH 	0.10810810810811
scalar RSUExampleScenario.node[1].appl 	NumberofON 	0.32432432432432
scalar RSUExampleScenario.node[1].appl 	NumberofFN 	0.56756756756757
scalar RSUExampleScenario.node[1].veinsmobility 	startTime 	2.5
scalar RSUExampleScenario.node[1].veinsmobility 	totalTime 	447.5
scalar RSUExampleScenario.node[1].veinsmobility 	stopTime 	450
scalar RSUExampleScenario.node[1].veinsmobility 	minSpeed 	0
scalar RSUExampleScenario.node[1].veinsmobility 	maxSpeed 	13.999973847675
scalar RSUExampleScenario.node[1].veinsmobility 	totalDistance 	3078.4862008902
scalar RSUExampleScenario.node[1].veinsmobility 	totalCO2Emission 	831.52291989146
scalar RSUExampleScenario.node[10].appl 	meanClusterNodes 	0.5
scalar RSUExampleScenario.node[10].appl 	meanClusterHeadUtility 	18.475819137089
scalar RSUExampleScenario.node[10].appl 	NumberofCH 	0.054054054054054
scalar RSUExampleScenario.node[10].appl 	NumberofON 	0.7027027027027
scalar RSUExampleScenario.node[10].appl 	NumberofFN 	0.24324324324324
scalar RSUExampleScenario.node[10].veinsmobility 	startTime 	24.2
scalar RSUExampleScenario.node[10].veinsmobility 	totalTime 	425.8
scalar RSUExampleScenario.node[10].veinsmobility 	stopTime 	450
scalar RSUExampleScenario.node[10].veinsmobility 	minSpeed 	0
scalar RSUExampleScenario.node[10].veinsmobility 	maxSpeed 	13.999913272602
scalar RSUExampleScenario.node[10].veinsmobility 	totalDistance 	2794.8177618538
scalar RSUExampleScenario.node[10].veinsmobility 	totalCO2Emission 	759.29009521335
scalar RSUExampleScenario.node[11].appl 	meanClusterNodes 	2.75
scalar RSUExampleScenario.node[11].appl 	meanClusterHeadUtility 	8.6570284824467
scalar RSUExampleScenario.node[11].appl 	NumberofCH 	0.10810810810811
scalar RSUExampleScenario.node[11].appl 	NumberofON 	0.35135135135135
scalar RSUExampleScenario.node[11].appl 	NumberofFN 	0.54054054054054
scalar RSUExampleScenario.node[11].veinsmobility 	startTime 	26.6
scalar RSUExampleScenario.node[11].veinsmobility 	totalTime 	423.4
scalar RSUExampleScenario.node[11].veinsmobility 	stopTime 	450
scalar RSUExampleScenario.node[11].veinsmobility 	minSpeed 	0
scalar RSUExampleScenario.node[11].veinsmobility 	maxSpeed 	13.999912558913
scalar RSUExampleScenario.node[11].veinsmobility 	totalDistance 	2753.7288123009
scalar RSUExampleScenario.node[11].veinsmobility 	totalCO2Emission 	750.35904074621
scalar RSUExampleScenario.node[12].appl 	meanClusterNodes 	7.5
scalar RSUExampleScenario.node[12].appl 	meanClusterHeadUtility 	18.174555064465
scalar RSUExampleScenario.node[12].appl 	NumberofCH 	0.054054054054054
scalar RSUExampleScenario.node[12].appl 	NumberofON 	0.24324324324324
scalar RSUExampleScenario.node[12].appl 	NumberofFN 	0.7027027027027
scalar RSUExampleScenario.node[12].veinsmobility 	startTime 	29
scalar RSUExampleScenario.node[12].veinsmobility 	totalTime 	421
scalar RSUExampleScenario.node[12].veinsmobility 	stopTime 	450
scalar RSUExampleScenario.node[12].veinsmobility 	minSpeed 	0
scalar RSUExampleScenario.node[12].veinsmobility 	maxSpeed 	13.999834235904
scalar RSUExampleScenario.node[12].veinsmobility 	totalDistance 	2721.5057436566
scalar RSUExampleScenario.node[12].veinsmobility 	totalCO2Emission 	745.06821894927
scalar RSUExampleScenario.node[13].appl 	meanClusterNodes 	3
scalar RSUExampleScenario.node[13].appl 	meanClusterHeadUtility 	8.8819813117403
scalar RSUExampleScenario.node[13].appl 	NumberofCH 	0.10810810810811
scalar RSUExampleScenario.node[13].appl 	NumberofON 	0.54054054054054
scalar RSUExampleScenario.node[13].appl 	NumberofFN 	0.35135135135135
scalar RSUExampleScenario.node[13].veinsmobility 	startTime 	31.4
scalar RSUExampleScenario.node[13].veinsmobility 	totalTime 	418.6
scalar RSUExampleScenario.node[13].veinsmobility 	stopTime 	450
scalar RSUExampleScenario.node[13].veinsmobility 	minSpeed 	0
scalar RSUExampleScenario.node[13].veinsmobility 	maxSpeed 	13.99998106786
scalar RSUExampleScenario.node[13].veinsmobility 	totalDistance 	2679.587583914
scalar RSUExampleScenario.node[13].veinsmobility 	totalCO2Emission 	744.25879809638
scalar RSUExampleScenario.node[14].appl 	meanClusterNodes 	0.25
scalar RSUExampleScenario.node[14].appl 	meanClusterHeadUtility 	7.580770784491
scalar RSUExampleScenario.node[14].appl 	NumberofCH 	0.10810810810811
scalar RSUExampleScenario.node[14].appl 	NumberofON 	0.54054054054054
scalar RSUExampleScenario.node[14].appl 	NumberofFN 	0.35135135135135
scalar RSUExampleScenario.node[14].veinsmobility 	startTime 	33.8
scalar RSUExampleScenario.node[14].veinsmobility 	totalTime 	416.2
scalar RSUExampleScenario.node[14].veinsmobility 	stopTime 	450
scalar RSUExampleScenario.node[14].veinsmobility 	minSpeed 	0
scalar RSUExampleScenario.node[14].veinsmobility 	maxSpeed 	13.999962596612
scalar RSUExampleScenario.node[14].veinsmobility 	totalDistance 	2654.080752346
scalar RSUExampleScenario.node[14].veinsmobility 	totalCO2Emission 	737.10783345094
scalar RSUExampleScenario.node[15].appl 	meanClusterNodes 	2.6666666666667
scalar RSUExampleScenario.node[15].appl 	meanClusterHeadUtility 	11.828432266013
scalar RSUExampleScenario.node[15].appl 	NumberofCH 	0.081081081081081
scalar RSUExampleScenario.node[15].appl 	NumberofON 	0.56756756756757
scalar RSUExampleScenario.node[15].appl 	NumberofFN 	0.35135135135135
scalar RSUExampleScenario.node[15].veinsmobility 	startTime 	36.2
scalar RSUExampleScenario.node[15].veinsmobility 	totalTime 	413.8
scalar RSUExampleScenario.node[15].veinsmobility 	stopTime 	450
scalar RSUExampleScenario.node[15].veinsmobility 	minSpeed 	0
scalar RSUExampleScenario.node[15].veinsmobility 	maxSpeed 	13.999969322884
scalar RSUExampleScenario.node[15].veinsmobility 	totalDistance 	2614.8577003542
scalar RSUExampleScenario.node[15].veinsmobility 	totalCO2Emission 	730.39221467409
scalar RSUExampleScenario.node[16].appl 	meanClusterNodes 	2
scalar RSUExampleScenario.node[16].appl 	meanClusterHeadUtility 	35.179658816256
scalar RSUExampleScenario.node[16].appl 	NumberofCH 	0.027027027027027
scalar RSUExampleScenario.node[16].appl 	NumberofON 	0.59459459459459
scalar RSUExampleScenario.node[16].appl 	NumberofFN 	0.37837837837838
scalar RSUExampleScenario.node[16].veinsmobility 	startTime 	38.6
scalar RSUExampleScenario.node[16].veinsmobility 	totalTime 	411.4
scalar RSUExampleScenario.node[16].veinsmobility 	stopTime 	450
scalar RSUExampleScenario.node[16].veinsmobility 	minSpeed 	0
scalar RSUExampleScenario.node[16].veinsmobility 	maxSpeed 	13.999900753067
scalar RSUExampleScenario.node[16].veinsmobility 	totalDistance 	2583.2524098585
scalar RSUExampleScenario.node[16].veinsmobility 	totalCO2Emission 	725.51186681177
scalar RSUExampleScenario.node[17].appl 	meanClusterNodes 	1.25
scalar RSUExampleScenario.node[17].appl 	meanClusterHeadUtility 	8.3127193515562
scalar RSUExampleScenario.node[17].appl 	NumberofCH 	0.10810810810811
scalar RSUExampleScenario.node[17].appl 	NumberofON 	0.48648648648649
scalar RSUExampleScenario.node[17].appl 	NumberofFN 	0.40540540540541
scalar RSUExampleScenario.node[17].veinsmobility 	startTime 	41
scalar RSUExampleScenario.node[17].veinsmobility 	totalTime 	409
scalar RSUExampleScenario.node[17].veinsmobility 	stopTime 	450
scalar RSUExampleScenario.node[17].veinsmobility 	minSpeed 	0
scalar RSUExampleScenario.node[17].veinsmobility 	maxSpeed 	13.999956327053
scalar RSUExampleScenario.node[17].veinsmobility 	totalDistance 	2538.2543906677
scalar RSUExampleScenario.node[17].veinsmobility 	totalCO2Emission 	715.81209591849
scalar RSUExampleScenario.node[18].appl 	meanClusterNodes 	6.75
scalar RSUExampleScenario.node[18].appl 	meanClusterHeadUtility 	8.2522158515824
scalar RSUExampleScenario.node[18].appl 	NumberofCH 	0.10810810810811
scalar RSUExampleScenario.node[18].appl 	NumberofON 	0.24324324324324
scalar RSUExampleScenario.node[18].appl 	NumberofFN 	0.64864864864865
scalar RSUExampleScenario.node[18].veinsmobility 	startTime 	43.4
scalar RSUExampleScenario.node[18].veinsmobility 	totalTime 	406.6
scalar RSUExampleScenario.node[18].veinsmobility 	stopTime 	450
scalar RSUExampleScenario.node[18].veinsmobility 	minSpeed 	0
scalar RSUExampleScenario.node[18].veinsmobility 	maxSpeed 	13.999893188644
scalar RSUExampleScenario.node[18].veinsmobility 	totalDistance 	2510.3150472766
scalar RSUExampleScenario.node[18].veinsmobility 	totalCO2Emission 	714.01155585754
scalar RSUExampleScenario.node[19].appl 	meanClusterNodes 	8
scalar RSUExampleScenario.node[19].appl 	meanClusterHeadUtility 	11.835926609755
scalar RSUExampleScenario.node[19].appl 	NumberofCH 	0.081081081081081
scalar RSUExampleScenario.node[19].appl 	NumberofON 	0.37837837837838
scalar RSUExampleScenario.node[19].appl 	NumberofFN 	0.54054054054054
scalar RSUExampleScenario.node[19].veinsmobility 	startTime 	45.8
scalar RSUExampleScenario.node[19].veinsmobility 	totalTime 	404.2
scalar RSUExampleScenario.node[19].veinsmobility 	stopTime 	450
scalar RSUExampleScenario.node[19].veinsmobility 	minSpeed 	0
scalar RSUExampleScenario.node[19].veinsmobility 	maxSpeed 	13.999836911564
scalar RSUExampleScenario.node[19].veinsmobility 	totalDistance 	2471.2869726735
scalar RSUExampleScenario.node[19].veinsmobility 	totalCO2Emission 	707.95929996992
scalar RSUExampleScenario.node[2].appl 	meanClusterNodes 	1
scalar RSUExampleScenario.node[2].appl 	meanClusterHeadUtility 	33.420850603848
scalar RSUExampleScenario.node[2].appl 	NumberofCH 	0.027027027027027
scalar RSUExampleScenario.node[2].appl 	NumberofON 	0.10810810810811
scalar RSUExampleScenario.node[2].appl 	NumberofFN 	0.86486486486486
scalar RSUExampleScenario.node[2].veinsmobility 	startTime 	4.9
scalar RSUExampleScenario.node[2].veinsmobility 	totalTime 	445.1
scalar RSUExampleScenario.node[2].veinsmobility 	stopTime 	450
scalar RSUExampleScenario.node[2].veinsmobility 	minSpeed 	0
scalar RSUExampleScenario.node[2].veinsmobility 	maxSpeed 	13.999959029953
scalar RSUExampleScenario.node[2].veinsmobility 	totalDistance 	3038.1357640548
scalar RSUExampleScenario.node[2].veinsmobility 	totalCO2Emission 	820.03500174406
scalar RSUExampleScenario.node[20].appl 	meanClusterNodes 	0.5
scalar RSUExampleScenario.node[20].appl 	meanClusterHeadUtility 	15.241827613193
scalar RSUExampleScenario.node[20].appl 	NumberofCH 	0.054054054054054
scalar RSUExampleScenario.node[20].appl 	NumberofON 	0.59459459459459
scalar RSUExampleScenario.node[20].appl 	NumberofFN 	0.35135135135135
scalar RSUExampleScenario.node[20].veinsmobility 	startTime 	48.3
scalar RSUExampleScenario.node[20].veinsmobility 	totalTime 	401.7
scalar RSUExampleScenario.node[20].veinsmobility 	stopTime 	450
scalar RSUExampleScenario.node[20].veinsmobility 	minSpeed 	0
scalar RSUExampleScenario.node[20].veinsmobility 	maxSpeed 	13.999853947444
scalar RSUExampleScenario.node[20].veinsmobility 	totalDistance 	2441.7358385762
scalar RSUExampleScenario.node[20].veinsmobility 	totalCO2Emission 	701.44259865563
scalar RSUExampleScenario.node[21].appl 	meanClusterNodes 	2.5
scalar RSUExampleScenario.node[21].appl 	meanClusterHeadUtility 	8.4940373543246
scalar RSUExampleScenario.node[21].appl 	NumberofCH 	0.10810810810811
scalar RSUExampleScenario.node[21].appl 	NumberofON 	0.59459459459459
scalar RSUExampleScenario.node[21].appl 	NumberofFN 	0.2972972972973
scalar RSUExampleScenario.node[21].veinsmobility 	startTime 	50.7
scalar RSUExampleScenario.node[21].veinsmobility 	totalTime 	399.3
scalar RSUExampleScenario.node[21].veinsmobility 	stopTime 	450
scalar RSUExampleScenario.node[21].veinsmobility 	minSpeed 	0
scalar RSUExampleScenario.node[21].veinsmobility 	maxSpeed 	13.999966959439
scalar RSUExampleScenario.node[21].veinsmobility 	totalDistance 	2404.3176046498
scalar RSUExampleScenario.node[21].veinsmobility 	totalCO2Emission 	692.59028625376
scalar RSUExampleScenario.node[22].appl 	meanClusterNodes 	0
scalar RSUExampleScenario.node[22].appl 	meanClusterHeadUtility 	0
scalar RSUExampleScenario.node[22].appl 	NumberofCH 	0
scalar RSUExampleScenario.node[22].appl 	NumberofON 	0.45945945945946
scalar RSUExampleScenario.node[22].appl 	NumberofFN 	0.54054054054054
scalar RSUExampleScenario.node[22].veinsmobility 	startTime 	53.1
scalar RSUExampleScenario.node[22].veinsmobility 	totalTime 	396.9
scalar RSUExampleScenario.node[22].veinsmobility 	stopTime 	450
scalar RSUExampleScenario.node[22].veinsmobility 	minSpeed 	0
scalar RSUExampleScenario.node[22].veinsmobility 	maxSpeed 	13.999989922971
scalar RSUExampleScenario.node[22].veinsmobility 	totalDistance 	2374.2423568343
scalar RSUExampleScenario.node[22].veinsmobility 	totalCO2Emission 	686.96233149827
scalar RSUExampleScenario.node[23].appl 	meanClusterNodes 	0
scalar RSUExampleScenario.node[23].appl 	meanClusterHeadUtility 	0
scalar RSUExampleScenario.node[23].appl 	NumberofCH 	0
scalar RSUExampleScenario.node[23].appl 	NumberofON 	0.51351351351351
scalar RSUExampleScenario.node[23].appl 	NumberofFN 	0.48648648648649
scalar RSUExampleScenario.node[23].veinsmobility 	startTime 	55.5
scalar RSUExampleScenario.node[23].veinsmobility 	totalTime 	394.5
scalar RSUExampleScenario.node[23].veinsmobility 	stopTime 	450
scalar RSUExampleScenario.node[23].veinsmobility 	minSpeed 	0
scalar RSUExampleScenario.node[23].veinsmobility 	maxSpeed 	13.999878265681
scalar RSUExampleScenario.node[23].veinsmobility 	totalDistance 	2335.2388133042
scalar RSUExampleScenario.node[23].veinsmobility 	totalCO2Emission 	679.66038595392
scalar RSUExampleScenario.node[24].appl 	meanClusterNodes 	5.5
scalar RSUExampleScenario.node[24].appl 	meanClusterHeadUtility 	16.672941172996
scalar RSUExampleScenario.node[24].appl 	NumberofCH 	0.054054054054054
scalar RSUExampleScenario.node[24].appl 	NumberofON 	0.48648648648649
scalar RSUExampleScenario.node[24].appl 	NumberofFN 	0.45945945945946
scalar RSUExampleScenario.node[24].veinsmobility 	startTime 	57.9
scalar RSUExampleScenario.node[24].veinsmobility 	totalTime 	392.1
scalar RSUExampleScenario.node[24].veinsmobility 	stopTime 	450
scalar RSUExampleScenario.node[24].veinsmobility 	minSpeed 	0
scalar RSUExampleScenario.node[24].veinsmobility 	maxSpeed 	13.999993630466
scalar RSUExampleScenario.node[24].veinsmobility 	totalDistance 	2307.2351960403
scalar RSUExampleScenario.node[24].veinsmobility 	totalCO2Emission 	679.53960436541
scalar RSUExampleScenario.node[25].appl 	meanClusterNodes 	8
scalar RSUExampleScenario.node[25].appl 	meanClusterHeadUtility 	35.081021966533
scalar RSUExampleScenario.node[25].appl 	NumberofCH 	0.027027027027027
scalar RSUExampleScenario.node[25].appl 	NumberofON 	0.40540540540541
scalar RSUExampleScenario.node[25].appl 	NumberofFN 	0.56756756756757
scalar RSUExampleScenario.node[25].veinsmobility 	startTime 	60.3
scalar RSUExampleScenario.node[25].veinsmobility 	totalTime 	389.7
scalar RSUExampleScenario.node[25].veinsmobility 	stopTime 	450
scalar RSUExampleScenario.node[25].veinsmobility 	minSpeed 	0
scalar RSUExampleScenario.node[25].veinsmobility 	maxSpeed 	13.999961443855
scalar RSUExampleScenario.node[25].veinsmobility 	totalDistance 	2269.1446182174
scalar RSUExampleScenario.node[25].veinsmobility 	totalCO2Emission 	673.01101594582
scalar RSUExampleScenario.node[26].appl 	meanClusterNodes 	6
scalar RSUExampleScenario.node[26].appl 	meanClusterHeadUtility 	16.892365546706
scalar RSUExampleScenario.node[26].appl 	NumberofCH 	0.054054054054054
scalar RSUExampleScenario.node[26].appl 	NumberofON 	0.48648648648649
scalar RSUExampleScenario.node[26].appl 	NumberofFN 	0.45945945945946
scalar RSUExampleScenario.node[26].veinsmobility 	startTime 	62.7
scalar RSUExampleScenario.node[26].veinsmobility 	totalTime 	387.3
scalar RSUExampleScenario.node[26].veinsmobility 	stopTime 	450
scalar RSUExampleScenario.node[26].veinsmobility 	minSpeed 	0
scalar RSUExampleScenario.node[26].veinsmobility 	maxSpeed 	13.999889017323
scalar RSUExampleScenario.node[26].veinsmobility 	totalDistance 	2238.9136601464
scalar RSUExampleScenario.node[26].veinsmobility 	totalCO2Emission 	663.97239968515
scalar RSUExampleScenario.node[27].appl 	meanClusterNodes 	6
scalar RSUExampleScenario.node[27].appl 	meanClusterHeadUtility 	16.81285617137
scalar RSUExampleScenario.node[27].appl 	NumberofCH 	0.054054054054054
scalar RSUExampleScenario.node[27].appl 	NumberofON 	0.54054054054054
scalar RSUExampleScenario.node[27].appl 	NumberofFN 	0.40540540540541
scalar RSUExampleScenario.node[27].veinsmobility 	startTime 	65.1
scalar RSUExampleScenario.node[27].veinsmobility 	totalTime 	384.9
scalar RSUExampleScenario.node[27].veinsmobility 	stopTime 	450
scalar RSUExampleScenario.node[27].veinsmobility 	minSpeed 	0
scalar RSUExampleScenario.node[27].veinsmobility 	maxSpeed 	13.999987410789
scalar RSUExampleScenario.node[27].veinsmobility 	totalDistance 	2202.9510781671
scalar RSUExampleScenario.node[27].veinsmobility 	totalCO2Emission 	661.91245953092
scalar RSUExampleScenario.node[28].appl 	meanClusterNodes 	5
scalar RSUExampleScenario.node[28].appl 	meanClusterHeadUtility 	16.467922010273
scalar RSUExampleScenario.node[28].appl 	NumberofCH 	0.054054054054054
scalar RSUExampleScenario.node[28].appl 	NumberofON 	0.54054054054054
scalar RSUExampleScenario.node[28].appl 	NumberofFN 	0.40540540540541
scalar RSUExampleScenario.node[28].veinsmobility 	startTime 	67.5
scalar RSUExampleScenario.node[28].veinsmobility 	totalTime 	382.5
scalar RSUExampleScenario.node[28].veinsmobility 	stopTime 	450
scalar RSUExampleScenario.node[28].veinsmobility 	minSpeed 	0
scalar RSUExampleScenario.node[28].veinsmobility 	maxSpeed 	13.999823705249
scalar RSUExampleScenario.node[28].veinsmobility 	totalDistance 	2169.4733735686
scalar RSUExampleScenario.node[28].veinsmobility 	totalCO2Emission 	658.13426813973
scalar RSUExampleScenario.node[29].appl 	meanClusterNodes 	2
scalar RSUExampleScenario.node[29].appl 	meanClusterHeadUtility 	16.077702298603
scalar RSUExampleScenario.node[29].appl 	NumberofCH 	0.054054054054054
scalar RSUExampleScenario.node[29].appl 	NumberofON 	0.40540540540541
scalar RSUExampleScenario.node[29].appl 	NumberofFN 	0.54054054054054
scalar RSUExampleScenario.node[29].veinsmobility 	startTime 	69.9
scalar RSUExampleScenario.node[29].veinsmobility 	totalTime 	380.1
scalar RSUExampleScenario.node[29].veinsmobility 	stopTime 	450
scalar RSUExampleScenario.node[29].veinsmobility 	minSpeed 	0
scalar RSUExampleScenario.node[29].veinsmobility 	maxSpeed 	13.999926189464
scalar RSUExampleScenario.node[29].veinsmobility 	totalDistance 	2133.635773291
scalar RSUExampleScenario.node[29].veinsmobility 	totalCO2Emission 	650.81584554813
scalar RSUExampleScenario.node[3].appl 	meanClusterNodes 	3.25
scalar RSUExampleScenario.node[3].appl 	meanClusterHeadUtility 	8.4451580356159
scalar RSUExampleScenario.node[3].appl 	NumberofCH 	0.10810810810811
scalar RSUExampleScenario.node[3].appl 	NumberofON 	0.45945945945946
scalar RSUExampleScenario.node[3].appl 	NumberofFN 	0.43243243243243
scalar RSUExampleScenario.node[3].veinsmobility 	startTime 	7.3
scalar RSUExampleScenario.node[3].veinsmobility 	totalTime 	442.7
scalar RSUExampleScenario.node[3].veinsmobility 	stopTime 	450
scalar RSUExampleScenario.node[3].veinsmobility 	minSpeed 	0
scalar RSUExampleScenario.node[3].veinsmobility 	maxSpeed 	13.999934129361
scalar RSUExampleScenario.node[3].veinsmobility 	totalDistance 	2990.8828971455
scalar RSUExampleScenario.node[3].veinsmobility 	totalCO2Emission 	812.97149126506
scalar RSUExampleScenario.node[30].appl 	meanClusterNodes 	10.25
scalar RSUExampleScenario.node[30].appl 	meanClusterHeadUtility 	9.0120565403278
scalar RSUExampleScenario.node[30].appl 	NumberofCH 	0.10810810810811
scalar RSUExampleScenario.node[30].appl 	NumberofON 	0.27027027027027
scalar RSUExampleScenario.node[30].appl 	NumberofFN 	0.62162162162162
scalar RSUExampleScenario.node[30].veinsmobility 	startTime 	72.4
scalar RSUExampleScenario.node[30].veinsmobility 	totalTime 	377.6
scalar RSUExampleScenario.node[30].veinsmobility 	stopTime 	450
scalar RSUExampleScenario.node[30].veinsmobility 	minSpeed 	0
scalar RSUExampleScenario.node[30].veinsmobility 	maxSpeed 	13.999998251842
scalar RSUExampleScenario.node[30].veinsmobility 	totalDistance 	2101.7676188742
scalar RSUExampleScenario.node[30].veinsmobility 	totalCO2Emission 	643.21328298064
scalar RSUExampleScenario.node[31].appl 	meanClusterNodes 	4
scalar RSUExampleScenario.node[31].appl 	meanClusterHeadUtility 	15.988960407578
scalar RSUExampleScenario.node[31].appl 	NumberofCH 	0.054054054054054
scalar RSUExampleScenario.node[31].appl 	NumberofON 	0.7027027027027
scalar RSUExampleScenario.node[31].appl 	NumberofFN 	0.24324324324324
scalar RSUExampleScenario.node[31].veinsmobility 	startTime 	74.8
scalar RSUExampleScenario.node[31].veinsmobility 	totalTime 	375.2
scalar RSUExampleScenario.node[31].veinsmobility 	stopTime 	450
scalar RSUExampleScenario.node[31].veinsmobility 	minSpeed 	0
scalar RSUExampleScenario.node[31].veinsmobility 	maxSpeed 	13.999480955868
scalar RSUExampleScenario.node[31].veinsmobility 	totalDistance 	2066.8964201242
scalar RSUExampleScenario.node[31].veinsmobility 	totalCO2Emission 	640.14804923322
scalar RSUExampleScenario.node[32].appl 	meanClusterNodes 	5.5
scalar RSUExampleScenario.node[32].appl 	meanClusterHeadUtility 	8.258519798881
scalar RSUExampleScenario.node[32].appl 	NumberofCH 	0.10810810810811
scalar RSUExampleScenario.node[32].appl 	NumberofON 	0.43243243243243
scalar RSUExampleScenario.node[32].appl 	NumberofFN 	0.45945945945946
scalar RSUExampleScenario.node[32].veinsmobility 	startTime 	77.2
scalar RSUExampleScenario.node[32].veinsmobility 	totalTime 	372.8
scalar RSUExampleScenario.node[32].veinsmobility 	stopTime 	450
scalar RSUExampleScenario.node[32].veinsmobility 	minSpeed 	0
scalar RSUExampleScenario.node[32].veinsmobility 	maxSpeed 	13.999910853433
scalar RSUExampleScenario.node[32].veinsmobility 	totalDistance 	2032.7707237757
scalar RSUExampleScenario.node[32].veinsmobility 	totalCO2Emission 	633.83584800439
scalar RSUExampleScenario.node[33].appl 	meanClusterNodes 	11.75
scalar RSUExampleScenario.node[33].appl 	meanClusterHeadUtility 	8.1497164364007
scalar RSUExampleScenario.node[33].appl 	NumberofCH 	0.10810810810811
scalar RSUExampleScenario.node[33].appl 	NumberofON 	0.32432432432432
scalar RSUExampleScenario.node[33].appl 	NumberofFN 	0.56756756756757
scalar RSUExampleScenario.node[33].veinsmobility 	startTime 	79.6
scalar RSUExampleScenario.node[33].veinsmobility 	totalTime 	370.4
scalar RSUExampleScenario.node[33].veinsmobility 	stopTime 	450
scalar RSUExampleScenario.node[33].veinsmobility 	minSpeed 	0
scalar RSUExampleScenario.node[33].veinsmobility 	maxSpeed 	13.999945448558
scalar RSUExampleScenario.node[33].veinsmobility 	totalDistance 	1999.7869283367
scalar RSUExampleScenario.node[33].veinsmobility 	totalCO2Emission 	626.56338460489
scalar RSUExampleScenario.node[34].appl 	meanClusterNodes 	6.5
scalar RSUExampleScenario.node[34].appl 	meanClusterHeadUtility 	17.439220062816
scalar RSUExampleScenario.node[34].appl 	NumberofCH 	0.054054054054054
scalar RSUExampleScenario.node[34].appl 	NumberofON 	0.67567567567568
scalar RSUExampleScenario.node[34].appl 	NumberofFN 	0.27027027027027
scalar RSUExampleScenario.node[34].veinsmobility 	startTime 	82
scalar RSUExampleScenario.node[34].veinsmobility 	totalTime 	368
scalar RSUExampleScenario.node[34].veinsmobility 	stopTime 	450
scalar RSUExampleScenario.node[34].veinsmobility 	minSpeed 	0
scalar RSUExampleScenario.node[34].veinsmobility 	maxSpeed 	13.999947904805
scalar RSUExampleScenario.node[34].veinsmobility 	totalDistance 	1966.2265740734
scalar RSUExampleScenario.node[34].veinsmobility 	totalCO2Emission 	621.6643657775
scalar RSUExampleScenario.node[35].appl 	meanClusterNodes 	3
scalar RSUExampleScenario.node[35].appl 	meanClusterHeadUtility 	15.445614078498
scalar RSUExampleScenario.node[35].appl 	NumberofCH 	0.054054054054054
scalar RSUExampleScenario.node[35].appl 	NumberofON 	0.72972972972973
scalar RSUExampleScenario.node[35].appl 	NumberofFN 	0.21621621621622
scalar RSUExampleScenario.node[35].veinsmobility 	startTime 	84.4
scalar RSUExampleScenario.node[35].veinsmobility 	totalTime 	365.6
scalar RSUExampleScenario.node[35].veinsmobility 	stopTime 	450
scalar RSUExampleScenario.node[35].veinsmobility 	minSpeed 	0
scalar RSUExampleScenario.node[35].veinsmobility 	maxSpeed 	13.999838310853
scalar RSUExampleScenario.node[35].veinsmobility 	totalDistance 	1933.182402066
scalar RSUExampleScenario.node[35].veinsmobility 	totalCO2Emission 	615.50249011048
scalar RSUExampleScenario.node[36].appl 	meanClusterNodes 	8.6666666666667
scalar RSUExampleScenario.node[36].appl 	meanClusterHeadUtility 	11.560085693379
scalar RSUExampleScenario.node[36].appl 	NumberofCH 	0.081081081081081
scalar RSUExampleScenario.node[36].appl 	NumberofON 	0.59459459459459
scalar RSUExampleScenario.node[36].appl 	NumberofFN 	0.32432432432432
scalar RSUExampleScenario.node[36].veinsmobility 	startTime 	86.8
scalar RSUExampleScenario.node[36].veinsmobility 	totalTime 	363.2
scalar RSUExampleScenario.node[36].veinsmobility 	stopTime 	450
scalar RSUExampleScenario.node[36].veinsmobility 	minSpeed 	0
scalar RSUExampleScenario.node[36].veinsmobility 	maxSpeed 	13.999993577437
scalar RSUExampleScenario.node[36].veinsmobility 	totalDistance 	1898.8904260529
scalar RSUExampleScenario.node[36].veinsmobility 	totalCO2Emission 	610.831495211
scalar RSUExampleScenario.node[37].appl 	meanClusterNodes 	13
scalar RSUExampleScenario.node[37].appl 	meanClusterHeadUtility 	16.858361198764
scalar RSUExampleScenario.node[37].appl 	NumberofCH 	0.054054054054054
scalar RSUExampleScenario.node[37].appl 	NumberofON 	0.45945945945946
scalar RSUExampleScenario.node[37].appl 	NumberofFN 	0.48648648648649
scalar RSUExampleScenario.node[37].veinsmobility 	startTime 	89.2
scalar RSUExampleScenario.node[37].veinsmobility 	totalTime 	360.8
scalar RSUExampleScenario.node[37].veinsmobility 	stopTime 	450
scalar RSUExampleScenario.node[37].veinsmobility 	minSpeed 	0
scalar RSUExampleScenario.node[37].veinsmobility 	maxSpeed 	13.999619700885
scalar RSUExampleScenario.node[37].veinsmobility 	totalDistance 	1863.9350794745
scalar RSUExampleScenario.node[37].veinsmobility 	totalCO2Emission 	600.7078570855
scalar RSUExampleScenario.node[38].appl 	meanClusterNodes 	13.5
scalar RSUExampleScenario.node[38].appl 	meanClusterHeadUtility 	17.728544565626
scalar RSUExampleScenario.node[38].appl 	NumberofCH 	0.054054054054054
scalar RSUExampleScenario.node[38].appl 	NumberofON 	0.24324324324324
scalar RSUExampleScenario.node[38].appl 	NumberofFN 	0.7027027027027
scalar RSUExampleScenario.node[38].veinsmobility 	startTime 	91.6
scalar RSUExampleScenario.node[38].veinsmobility 	totalTime 	358.4
scalar RSUExampleScenario.node[38].veinsmobility 	stopTime 	450
scalar RSUExampleScenario.node[38].veinsmobility 	minSpeed 	0
scalar RSUExampleScenario.node[38].veinsmobility 	maxSpeed 	13.999741403272
scalar RSUExampleScenario.node[38].veinsmobility 	totalDistance 	1830.1403596599
scalar RSUExampleScenario.node[38].veinsmobility 	totalCO2Emission 	597.21988078254
scalar RSUExampleScenario.node[39].appl 	meanClusterNodes 	0
scalar RSUExampleScenario.node[39].appl 	meanClusterHeadUtility 	0
scalar RSUExampleScenario.node[39].appl 	NumberofCH 	0
scalar RSUExampleScenario.node[39].appl 	NumberofON 	0.54054054054054
scalar RSUExampleScenario.node[39].appl 	NumberofFN 	0.45945945945946
scalar RSUExampleScenario.node[39].veinsmobility 	startTime 	94
scalar RSUExampleScenario.node[39].veinsmobility 	totalTime 	356
scalar RSUExampleScenario.node[39].veinsmobility 	stopTime 	450
scalar RSUExampleScenario.node[39].veinsmobility 	minSpeed 	0
scalar RSUExampleScenario.node[39].veinsmobility 	maxSpeed 	13.999928870329
scalar RSUExampleScenario.node[39].veinsmobility 	totalDistance 	1797.5027779245
scalar RSUExampleScenario.node[39].veinsmobility 	totalCO2Emission 	594.59652707571
scalar RSUExampleScenario.node[4].appl 	meanClusterNodes 	0
scalar RSUExampleScenario.node[4].appl 	meanClusterHeadUtility 	0
scalar RSUExampleScenario.node[4].appl 	NumberofCH 	0.10810810810811
scalar RSUExampleScenario.node[4].appl 	NumberofON 	0.43243243243243
scalar RSUExampleScenario.node[4].appl 	NumberofFN 	0.45945945945946
scalar RSUExampleScenario.node[4].veinsmobility 	startTime 	9.7
scalar RSUExampleScenario.node[4].veinsmobility 	totalTime 	440.3
scalar RSUExampleScenario.node[4].veinsmobility 	stopTime 	450
scalar RSUExampleScenario.node[4].veinsmobility 	minSpeed 	0
scalar RSUExampleScenario.node[4].veinsmobility 	maxSpeed 	13.999983433455
scalar RSUExampleScenario.node[4].veinsmobility 	totalDistance 	2948.6998956202
scalar RSUExampleScenario.node[4].veinsmobility 	totalCO2Emission 	795.3639156594
scalar RSUExampleScenario.node[40].appl 	meanClusterNodes 	6.75
scalar RSUExampleScenario.node[40].appl 	meanClusterHeadUtility 	8.4417849253331
scalar RSUExampleScenario.node[40].appl 	NumberofCH 	0.10810810810811
scalar RSUExampleScenario.node[40].appl 	NumberofON 	0.72972972972973
scalar RSUExampleScenario.node[40].appl 	NumberofFN 	0.16216216216216
scalar RSUExampleScenario.node[40].veinsmobility 	startTime 	96.5
scalar RSUExampleScenario.node[40].veinsmobility 	totalTime 	353.5
scalar RSUExampleScenario.node[40].veinsmobility 	stopTime 	450
scalar RSUExampleScenario.node[40].veinsmobility 	minSpeed 	0
scalar RSUExampleScenario.node[40].veinsmobility 	maxSpeed 	13.999918161335
scalar RSUExampleScenario.node[40].veinsmobility 	totalDistance 	1763.9975968093
scalar RSUExampleScenario.node[40].veinsmobility 	totalCO2Emission 	585.07369282462
scalar RSUExampleScenario.node[41].appl 	meanClusterNodes 	0
scalar RSUExampleScenario.node[41].appl 	meanClusterHeadUtility 	0
scalar RSUExampleScenario.node[41].appl 	NumberofCH 	0
scalar RSUExampleScenario.node[41].appl 	NumberofON 	0.45945945945946
scalar RSUExampleScenario.node[41].appl 	NumberofFN 	0.54054054054054
scalar RSUExampleScenario.node[41].veinsmobility 	startTime 	98.9
scalar RSUExampleScenario.node[41].veinsmobility 	totalTime 	351.1
scalar RSUExampleScenario.node[41].veinsmobility 	stopTime 	450
scalar RSUExampleScenario.node[41].veinsmobility 	minSpeed 	0
scalar RSUExampleScenario.node[41].veinsmobility 	maxSpeed 	13.999529392845
scalar RSUExampleScenario.node[41].veinsmobility 	totalDistance 	1729.7804574458
scalar RSUExampleScenario.node[41].veinsmobility 	totalCO2Emission 	581.70157158285
scalar RSUExampleScenario.node[42].appl 	meanClusterNodes 	4.75
scalar RSUExampleScenario.node[42].appl 	meanClusterHeadUtility 	8.4226911862163
scalar RSUExampleScenario.node[42].appl 	NumberofCH 	0.10810810810811
scalar RSUExampleScenario.node[42].appl 	NumberofON 	0.40540540540541
scalar RSUExampleScenario.node[42].appl 	NumberofFN 	0.48648648648649
scalar RSUExampleScenario.node[42].veinsmobility 	startTime 	101.3
scalar RSUExampleScenario.node[42].veinsmobility 	totalTime 	348.7
scalar RSUExampleScenario.node[42].veinsmobility 	stopTime 	450
scalar RSUExampleScenario.node[42].veinsmobility 	minSpeed 	0
scalar RSUExampleScenario.node[42].veinsmobility 	maxSpeed 	13.99952199193
scalar RSUExampleScenario.node[42].veinsmobility 	totalDistance 	1698.3213855191
scalar RSUExampleScenario.node[42].veinsmobility 	totalCO2Emission 	576.56583343439
scalar RSUExampleScenario.node[43].appl 	meanClusterNodes 	10
scalar RSUExampleScenario.node[43].appl 	meanClusterHeadUtility 	16.897926104387
scalar RSUExampleScenario.node[43].appl 	NumberofCH 	0.054054054054054
scalar RSUExampleScenario.node[43].appl 	NumberofON 	0.54054054054054
scalar RSUExampleScenario.node[43].appl 	NumberofFN 	0.40540540540541
scalar RSUExampleScenario.node[43].veinsmobility 	startTime 	103.7
scalar RSUExampleScenario.node[43].veinsmobility 	totalTime 	346.3
scalar RSUExampleScenario.node[43].veinsmobility 	stopTime 	450
scalar RSUExampleScenario.node[43].veinsmobility 	minSpeed 	0
scalar RSUExampleScenario.node[43].veinsmobility 	maxSpeed 	13.999911340536
scalar RSUExampleScenario.node[43].veinsmobility 	totalDistance 	1662.9745831603
scalar RSUExampleScenario.node[43].veinsmobility 	totalCO2Emission 	568.55286876828
scalar RSUExampleScenario.node[44].appl 	meanClusterNodes 	5.5
scalar RSUExampleScenario.node[44].appl 	meanClusterHeadUtility 	18.486363816792
scalar RSUExampleScenario.node[44].appl 	NumberofCH 	0.054054054054054
scalar RSUExampleScenario.node[44].appl 	NumberofON 	0.54054054054054
scalar RSUExampleScenario.node[44].appl 	NumberofFN 	0.40540540540541
scalar RSUExampleScenario.node[44].veinsmobility 	startTime 	106.1
scalar RSUExampleScenario.node[44].veinsmobility 	totalTime 	343.9
scalar RSUExampleScenario.node[44].veinsmobility 	stopTime 	450
scalar RSUExampleScenario.node[44].veinsmobility 	minSpeed 	0
scalar RSUExampleScenario.node[44].veinsmobility 	maxSpeed 	13.999707471561
scalar RSUExampleScenario.node[44].veinsmobility 	totalDistance 	1630.359664598
scalar RSUExampleScenario.node[44].veinsmobility 	totalCO2Emission 	564.83744982376
scalar RSUExampleScenario.node[45].appl 	meanClusterNodes 	5.25
scalar RSUExampleScenario.node[45].appl 	meanClusterHeadUtility 	8.8628249117308
scalar RSUExampleScenario.node[45].appl 	NumberofCH 	0.10810810810811
scalar RSUExampleScenario.node[45].appl 	NumberofON 	0.54054054054054
scalar RSUExampleScenario.node[45].appl 	NumberofFN 	0.35135135135135
scalar RSUExampleScenario.node[45].veinsmobility 	startTime 	108.5
scalar RSUExampleScenario.node[45].veinsmobility 	totalTime 	341.5
scalar RSUExampleScenario.node[45].veinsmobility 	stopTime 	450
scalar RSUExampleScenario.node[45].veinsmobility 	minSpeed 	0
scalar RSUExampleScenario.node[45].veinsmobility 	maxSpeed 	13.999652205855
scalar RSUExampleScenario.node[45].veinsmobility 	totalDistance 	1596.637695637
scalar RSUExampleScenario.node[45].veinsmobility 	totalCO2Emission 	557.08501925301
scalar RSUExampleScenario.node[46].appl 	meanClusterNodes 	0
scalar RSUExampleScenario.node[46].appl 	meanClusterHeadUtility 	0
scalar RSUExampleScenario.node[46].appl 	NumberofCH 	0
scalar RSUExampleScenario.node[46].appl 	NumberofON 	0.89189189189189
scalar RSUExampleScenario.node[46].appl 	NumberofFN 	0.10810810810811
scalar RSUExampleScenario.node[46].veinsmobility 	startTime 	110.9
scalar RSUExampleScenario.node[46].veinsmobility 	totalTime 	339.1
scalar RSUExampleScenario.node[46].veinsmobility 	stopTime 	450
scalar RSUExampleScenario.node[46].veinsmobility 	minSpeed 	0
scalar RSUExampleScenario.node[46].veinsmobility 	maxSpeed 	13.999967536679
scalar RSUExampleScenario.node[46].veinsmobility 	totalDistance 	1563.11391721
scalar RSUExampleScenario.node[46].veinsmobility 	totalCO2Emission 	553.78853120763
scalar RSUExampleScenario.node[47].appl 	meanClusterNodes 	3
scalar RSUExampleScenario.node[47].appl 	meanClusterHeadUtility 	15.814643532568
scalar RSUExampleScenario.node[47].appl 	NumberofCH 	0.054054054054054
scalar RSUExampleScenario.node[47].appl 	NumberofON 	0.59459459459459
scalar RSUExampleScenario.node[47].appl 	NumberofFN 	0.35135135135135
scalar RSUExampleScenario.node[47].veinsmobility 	startTime 	113.3
scalar RSUExampleScenario.node[47].veinsmobility 	totalTime 	336.7
scalar RSUExampleScenario.node[47].veinsmobility 	stopTime 	450
scalar RSUExampleScenario.node[47].veinsmobility 	minSpeed 	0
scalar RSUExampleScenario.node[47].veinsmobility 	maxSpeed 	13.999831355512
scalar RSUExampleScenario.node[47].veinsmobility 	totalDistance 	1530.1783582993
scalar RSUExampleScenario.node[47].veinsmobility 	totalCO2Emission 	549.25845748831
scalar RSUExampleScenario.node[48].appl 	meanClusterNodes 	7
scalar RSUExampleScenario.node[48].appl 	meanClusterHeadUtility 	8.4169144686042
scalar RSUExampleScenario.node[48].appl 	NumberofCH 	0.10810810810811
scalar RSUExampleScenario.node[48].appl 	NumberofON 	0.64864864864865
scalar RSUExampleScenario.node[48].appl 	NumberofFN 	0.24324324324324
scalar RSUExampleScenario.node[48].veinsmobility 	startTime 	115.7
scalar RSUExampleScenario.node[48].veinsmobility 	totalTime 	334.3
scalar RSUExampleScenario.node[48].veinsmobility 	stopTime 	450
scalar RSUExampleScenario.node[48].veinsmobility 	minSpeed 	0
scalar RSUExampleScenario.node[48].veinsmobility 	maxSpeed 	13.999919826922
scalar RSUExampleScenario.node[48].veinsmobility 	totalDistance 	1495.0524531189
scalar RSUExampleScenario.node[48].veinsmobility 	totalCO2Emission 	539.75605157829
scalar RSUExampleScenario.node[49].appl 	meanClusterNodes 	7.5
scalar RSUExampleScenario.node[49].appl 	meanClusterHeadUtility 	18.325633841796
scalar RSUExampleScenario.node[49].appl 	NumberofCH 	0.054054054054054
scalar RSUExampleScenario.node[49].appl 	NumberofON 	0.48648648648649
scalar RSUExampleScenario.node[49].appl 	NumberofFN 	0.45945945945946
scalar RSUExampleScenario.node[49].veinsmobility 	startTime 	118.1
scalar RSUExampleScenario.node[49].veinsmobility 	totalTime 	331.9
scalar RSUExampleScenario.node[49].veinsmobility 	stopTime 	450
scalar RSUExampleScenario.node[49].veinsmobility 	minSpeed 	0
scalar RSUExampleScenario.node[49].veinsmobility 	maxSpeed 	13.999887731629
scalar RSUExampleScenario.node[49].veinsmobility 	totalDistance 	1461.5518856539
scalar RSUExampleScenario.node[49].veinsmobility 	totalCO2Emission 	535.70386670609
scalar RSUExampleScenario.node[5].appl 	meanClusterNodes 	10
scalar RSUExampleScenario.node[5].appl 	meanClusterHeadUtility 	9.3813574717223
scalar RSUExampleScenario.node[5].appl 	NumberofCH 	0.10810810810811
scalar RSUExampleScenario.node[5].appl 	NumberofON 	0.10810810810811
scalar RSUExampleScenario.node[5].appl 	NumberofFN 	0.78378378378378
scalar RSUExampleScenario.node[5].veinsmobility 	startTime 	12.1
scalar RSUExampleScenario.node[5].veinsmobility 	totalTime 	437.9
scalar RSUExampleScenario.node[5].veinsmobility 	stopTime 	450
scalar RSUExampleScenario.node[5].veinsmobility 	minSpeed 	0
scalar RSUExampleScenario.node[5].veinsmobility 	maxSpeed 	13.999981934947
scalar RSUExampleScenario.node[5].veinsmobility 	totalDistance 	2913.0948416866
scalar RSUExampleScenario.node[5].veinsmobility 	totalCO2Emission 	784.99742183247
scalar RSUExampleScenario.node[50].appl 	meanClusterNodes 	6.5
scalar RSUExampleScenario.node[50].appl 	meanClusterHeadUtility 	8.5012924677921
scalar RSUExampleScenario.node[50].appl 	NumberofCH 	0.10810810810811
scalar RSUExampleScenario.node[50].appl 	NumberofON 	0.45945945945946
scalar RSUExampleScenario.node[50].appl 	NumberofFN 	0.43243243243243
scalar RSUExampleScenario.node[50].veinsmobility 	startTime 	120.6
scalar RSUExampleScenario.node[50].veinsmobility 	totalTime 	329.4
scalar RSUExampleScenario.node[50].veinsmobility 	stopTime 	450
scalar RSUExampleScenario.node[50].veinsmobility 	minSpeed 	0
scalar RSUExampleScenario.node[50].veinsmobility 	maxSpeed 	13.99997607446
scalar RSUExampleScenario.node[50].veinsmobility 	totalDistance 	1427.4248341748
scalar RSUExampleScenario.node[50].veinsmobility 	totalCO2Emission 	532.41448371165
scalar RSUExampleScenario.node[51].appl 	meanClusterNodes 	3.5
scalar RSUExampleScenario.node[51].appl 	meanClusterHeadUtility 	17.368258452911
scalar RSUExampleScenario.node[51].appl 	NumberofCH 	0.054054054054054
scalar RSUExampleScenario.node[51].appl 	NumberofON 	0.81081081081081
scalar RSUExampleScenario.node[51].appl 	NumberofFN 	0.13513513513514
scalar RSUExampleScenario.node[51].veinsmobility 	startTime 	123
scalar RSUExampleScenario.node[51].veinsmobility 	totalTime 	327
scalar RSUExampleScenario.node[51].veinsmobility 	stopTime 	450
scalar RSUExampleScenario.node[51].veinsmobility 	minSpeed 	0
scalar RSUExampleScenario.node[51].veinsmobility 	maxSpeed 	13.99963287448
scalar RSUExampleScenario.node[51].veinsmobility 	totalDistance 	1393.8649653624
scalar RSUExampleScenario.node[51].veinsmobility 	totalCO2Emission 	525.41899923016
scalar RSUExampleScenario.node[52].appl 	meanClusterNodes 	6.5
scalar RSUExampleScenario.node[52].appl 	meanClusterHeadUtility 	17.234952062475
scalar RSUExampleScenario.node[52].appl 	NumberofCH 	0.054054054054054
scalar RSUExampleScenario.node[52].appl 	NumberofON 	0.7027027027027
scalar RSUExampleScenario.node[52].appl 	NumberofFN 	0.24324324324324
scalar RSUExampleScenario.node[52].veinsmobility 	startTime 	125.4
scalar RSUExampleScenario.node[52].veinsmobility 	totalTime 	324.6
scalar RSUExampleScenario.node[52].veinsmobility 	stopTime 	450
scalar RSUExampleScenario.node[52].veinsmobility 	minSpeed 	0
scalar RSUExampleScenario.node[52].veinsmobility 	maxSpeed 	13.999997846191
scalar RSUExampleScenario.node[52].veinsmobility 	totalDistance 	1358.3811921337
scalar RSUExampleScenario.node[52].veinsmobility 	totalCO2Emission 	517.5482071982
scalar RSUExampleScenario.node[53].appl 	meanClusterNodes 	0
scalar RSUExampleScenario.node[53].appl 	meanClusterHeadUtility 	0
scalar RSUExampleScenario.node[53].appl 	NumberofCH 	0
scalar RSUExampleScenario.node[53].appl 	NumberofON 	0.45945945945946
scalar RSUExampleScenario.node[53].appl 	NumberofFN 	0.54054054054054
scalar RSUExampleScenario.node[53].veinsmobility 	startTime 	127.8
scalar RSUExampleScenario.node[53].veinsmobility 	totalTime 	322.2
scalar RSUExampleScenario.node[53].veinsmobility 	stopTime 	450
scalar RSUExampleScenario.node[53].veinsmobility 	minSpeed 	0
scalar RSUExampleScenario.node[53].veinsmobility 	maxSpeed 	13.99995286488
scalar RSUExampleScenario.node[53].veinsmobility 	totalDistance 	1326.5229314869
scalar RSUExampleScenario.node[53].veinsmobility 	totalCO2Emission 	515.73833100191
scalar RSUExampleScenario.node[54].appl 	meanClusterNodes 	7
scalar RSUExampleScenario.node[54].appl 	meanClusterHeadUtility 	17.828691765708
scalar RSUExampleScenario.node[54].appl 	NumberofCH 	0.054054054054054
scalar RSUExampleScenario.node[54].appl 	NumberofON 	0.45945945945946
scalar RSUExampleScenario.node[54].appl 	NumberofFN 	0.48648648648649
scalar RSUExampleScenario.node[54].veinsmobility 	startTime 	130.2
scalar RSUExampleScenario.node[54].veinsmobility 	totalTime 	319.8
scalar RSUExampleScenario.node[54].veinsmobility 	stopTime 	450
scalar RSUExampleScenario.node[54].veinsmobility 	minSpeed 	0
scalar RSUExampleScenario.node[54].veinsmobility 	maxSpeed 	13.999773608951
scalar RSUExampleScenario.node[54].veinsmobility 	totalDistance 	1292.765258012
scalar RSUExampleScenario.node[54].veinsmobility 	totalCO2Emission 	506.26364212609
scalar RSUExampleScenario.node[55].appl 	meanClusterNodes 	8
scalar RSUExampleScenario.node[55].appl 	meanClusterHeadUtility 	11.201733505745
scalar RSUExampleScenario.node[55].appl 	NumberofCH 	0.081081081081081
scalar RSUExampleScenario.node[55].appl 	NumberofON 	0.45945945945946
scalar RSUExampleScenario.node[55].appl 	NumberofFN 	0.45945945945946
scalar RSUExampleScenario.node[55].veinsmobility 	startTime 	132.6
scalar RSUExampleScenario.node[55].veinsmobility 	totalTime 	317.4
scalar RSUExampleScenario.node[55].veinsmobility 	stopTime 	450
scalar RSUExampleScenario.node[55].veinsmobility 	minSpeed 	0
scalar RSUExampleScenario.node[55].veinsmobility 	maxSpeed 	13.999760927544
scalar RSUExampleScenario.node[55].veinsmobility 	totalDistance 	1259.9223887642
scalar RSUExampleScenario.node[55].veinsmobility 	totalCO2Emission 	503.65691379891
scalar RSUExampleScenario.node[56].appl 	meanClusterNodes 	4.75
scalar RSUExampleScenario.node[56].appl 	meanClusterHeadUtility 	7.8475786222201
scalar RSUExampleScenario.node[56].appl 	NumberofCH 	0.10810810810811
scalar RSUExampleScenario.node[56].appl 	NumberofON 	0.62162162162162
scalar RSUExampleScenario.node[56].appl 	NumberofFN 	0.27027027027027
scalar RSUExampleScenario.node[56].veinsmobility 	startTime 	135
scalar RSUExampleScenario.node[56].veinsmobility 	totalTime 	315
scalar RSUExampleScenario.node[56].veinsmobility 	stopTime 	450
scalar RSUExampleScenario.node[56].veinsmobility 	minSpeed 	0
scalar RSUExampleScenario.node[56].veinsmobility 	maxSpeed 	13.999858803791
scalar RSUExampleScenario.node[56].veinsmobility 	totalDistance 	1223.9313942161
scalar RSUExampleScenario.node[56].veinsmobility 	totalCO2Emission 	494.88940643661
scalar RSUExampleScenario.node[57].appl 	meanClusterNodes 	4.5
scalar RSUExampleScenario.node[57].appl 	meanClusterHeadUtility 	16.39276180548
scalar RSUExampleScenario.node[57].appl 	NumberofCH 	0.054054054054054
scalar RSUExampleScenario.node[57].appl 	NumberofON 	0.72972972972973
scalar RSUExampleScenario.node[57].appl 	NumberofFN 	0.21621621621622
scalar RSUExampleScenario.node[57].veinsmobility 	startTime 	137.4
scalar RSUExampleScenario.node[57].veinsmobility 	totalTime 	312.6
scalar RSUExampleScenario.node[57].veinsmobility 	stopTime 	450
scalar RSUExampleScenario.node[57].veinsmobility 	minSpeed 	0
scalar RSUExampleScenario.node[57].veinsmobility 	maxSpeed 	13.999670544954
scalar RSUExampleScenario.node[57].veinsmobility 	totalDistance 	1191.1210080375
scalar RSUExampleScenario.node[57].veinsmobility 	totalCO2Emission 	490.324489301
scalar RSUExampleScenario.node[58].appl 	meanClusterNodes 	5.5
scalar RSUExampleScenario.node[58].appl 	meanClusterHeadUtility 	16.873782098196
scalar RSUExampleScenario.node[58].appl 	NumberofCH 	0.054054054054054
scalar RSUExampleScenario.node[58].appl 	NumberofON 	0.35135135135135
scalar RSUExampleScenario.node[58].appl 	NumberofFN 	0.59459459459459
scalar RSUExampleScenario.node[58].veinsmobility 	startTime 	139.8
scalar RSUExampleScenario.node[58].veinsmobility 	totalTime 	310.2
scalar RSUExampleScenario.node[58].veinsmobility 	stopTime 	450
scalar RSUExampleScenario.node[58].veinsmobility 	minSpeed 	0
scalar RSUExampleScenario.node[58].veinsmobility 	maxSpeed 	13.999807511091
scalar RSUExampleScenario.node[58].veinsmobility 	totalDistance 	1156.6483049464
scalar RSUExampleScenario.node[58].veinsmobility 	totalCO2Emission 	485.49051285616
scalar RSUExampleScenario.node[59].appl 	meanClusterNodes 	6.75
scalar RSUExampleScenario.node[59].appl 	meanClusterHeadUtility 	8.0424475084366
scalar RSUExampleScenario.node[59].appl 	NumberofCH 	0.10810810810811
scalar RSUExampleScenario.node[59].appl 	NumberofON 	0.27027027027027
scalar RSUExampleScenario.node[59].appl 	NumberofFN 	0.62162162162162
scalar RSUExampleScenario.node[59].veinsmobility 	startTime 	142.2
scalar RSUExampleScenario.node[59].veinsmobility 	totalTime 	307.8
scalar RSUExampleScenario.node[59].veinsmobility 	stopTime 	450
scalar RSUExampleScenario.node[59].veinsmobility 	minSpeed 	0
scalar RSUExampleScenario.node[59].veinsmobility 	maxSpeed 	13.999210646611
scalar RSUExampleScenario.node[59].veinsmobility 	totalDistance 	1123.2232500201
scalar RSUExampleScenario.node[59].veinsmobility 	totalCO2Emission 	479.22098428669
scalar RSUExampleScenario.node[6].appl 	meanClusterNodes 	8
scalar RSUExampleScenario.node[6].appl 	meanClusterHeadUtility 	18.308205015735
scalar RSUExampleScenario.node[6].appl 	NumberofCH 	0.054054054054054
scalar RSUExampleScenario.node[6].appl 	NumberofON 	0.32432432432432
scalar RSUExampleScenario.node[6].appl 	NumberofFN 	0.62162162162162
scalar RSUExampleScenario.node[6].veinsmobility 	startTime 	14.5
scalar RSUExampleScenario.node[6].veinsmobility 	totalTime 	435.5
scalar RSUExampleScenario.node[6].veinsmobility 	stopTime 	450
scalar RSUExampleScenario.node[6].veinsmobility 	minSpeed 	0
scalar RSUExampleScenario.node[6].veinsmobility 	maxSpeed 	13.999995845992
scalar RSUExampleScenario.node[6].veinsmobility 	totalDistance 	2904.981881636
scalar RSUExampleScenario.node[6].veinsmobility 	totalCO2Emission 	778.35590929001
scalar RSUExampleScenario.node[60].appl 	meanClusterNodes 	7.5
scalar RSUExampleScenario.node[60].appl 	meanClusterHeadUtility 	8.1379778893535
scalar RSUExampleScenario.node[60].appl 	NumberofCH 	0.10810810810811
scalar RSUExampleScenario.node[60].appl 	NumberofON 	0.27027027027027
scalar RSUExampleScenario.node[60].appl 	NumberofFN 	0.62162162162162
scalar RSUExampleScenario.node[60].veinsmobility 	startTime 	144.7
scalar RSUExampleScenario.node[60].veinsmobility 	totalTime 	305.3
scalar RSUExampleScenario.node[60].veinsmobility 	stopTime 	450
scalar RSUExampleScenario.node[60].veinsmobility 	minSpeed 	0
scalar RSUExampleScenario.node[60].veinsmobility 	maxSpeed 	13.999488550681
scalar RSUExampleScenario.node[60].veinsmobility 	totalDistance 	1089.8973497362
scalar RSUExampleScenario.node[60].veinsmobility 	totalCO2Emission 	473.64196231045
scalar RSUExampleScenario.node[61].appl 	meanClusterNodes 	11.5
scalar RSUExampleScenario.node[61].appl 	meanClusterHeadUtility 	16.690496600048
scalar RSUExampleScenario.node[61].appl 	NumberofCH 	0.054054054054054
scalar RSUExampleScenario.node[61].appl 	NumberofON 	0.43243243243243
scalar RSUExampleScenario.node[61].appl 	NumberofFN 	0.51351351351351
scalar RSUExampleScenario.node[61].veinsmobility 	startTime 	147.1
scalar RSUExampleScenario.node[61].veinsmobility 	totalTime 	302.9
scalar RSUExampleScenario.node[61].veinsmobility 	stopTime 	450
scalar RSUExampleScenario.node[61].veinsmobility 	minSpeed 	0
scalar RSUExampleScenario.node[61].veinsmobility 	maxSpeed 	13.999927078313
scalar RSUExampleScenario.node[61].veinsmobility 	totalDistance 	1057.1584885925
scalar RSUExampleScenario.node[61].veinsmobility 	totalCO2Emission 	469.81267370786
scalar RSUExampleScenario.node[62].appl 	meanClusterNodes 	0
scalar RSUExampleScenario.node[62].appl 	meanClusterHeadUtility 	0
scalar RSUExampleScenario.node[62].appl 	NumberofCH 	0.054054054054054
scalar RSUExampleScenario.node[62].appl 	NumberofON 	0
scalar RSUExampleScenario.node[62].appl 	NumberofFN 	0.94594594594595
scalar RSUExampleScenario.node[62].veinsmobility 	startTime 	149.5
scalar RSUExampleScenario.node[62].veinsmobility 	totalTime 	300.5
scalar RSUExampleScenario.node[62].veinsmobility 	stopTime 	450
scalar RSUExampleScenario.node[62].veinsmobility 	minSpeed 	0
scalar RSUExampleScenario.node[62].veinsmobility 	maxSpeed 	13.999976986828
scalar RSUExampleScenario.node[62].veinsmobility 	totalDistance 	1024.5058104327
scalar RSUExampleScenario.node[62].veinsmobility 	totalCO2Emission 	462.16795060523
scalar RSUExampleScenario.node[63].appl 	meanClusterNodes 	9
scalar RSUExampleScenario.node[63].appl 	meanClusterHeadUtility 	17.186990224755
scalar RSUExampleScenario.node[63].appl 	NumberofCH 	0.054054054054054
scalar RSUExampleScenario.node[63].appl 	NumberofON 	0.32432432432432
scalar RSUExampleScenario.node[63].appl 	NumberofFN 	0.62162162162162
scalar RSUExampleScenario.node[63].veinsmobility 	startTime 	151.9
scalar RSUExampleScenario.node[63].veinsmobility 	totalTime 	298.1
scalar RSUExampleScenario.node[63].veinsmobility 	stopTime 	450
scalar RSUExampleScenario.node[63].veinsmobility 	minSpeed 	0
scalar RSUExampleScenario.node[63].veinsmobility 	maxSpeed 	13.999926102806
scalar RSUExampleScenario.node[63].veinsmobility 	totalDistance 	985.04117698133
scalar RSUExampleScenario.node[63].veinsmobility 	totalCO2Emission 	449.94723727487
scalar RSUExampleScenario.node[64].appl 	meanClusterNodes 	4.5
scalar RSUExampleScenario.node[64].appl 	meanClusterHeadUtility 	8.2389072694136
scalar RSUExampleScenario.node[64].appl 	NumberofCH 	0.10810810810811
scalar RSUExampleScenario.node[64].appl 	NumberofON 	0.37837837837838
scalar RSUExampleScenario.node[64].appl 	NumberofFN 	0.51351351351351
scalar RSUExampleScenario.node[64].veinsmobility 	startTime 	154.3
scalar RSUExampleScenario.node[64].veinsmobility 	totalTime 	295.7
scalar RSUExampleScenario.node[64].veinsmobility 	stopTime 	450
scalar RSUExampleScenario.node[64].veinsmobility 	minSpeed 	0
scalar RSUExampleScenario.node[64].veinsmobility 	maxSpeed 	13.999640321888
scalar RSUExampleScenario.node[64].veinsmobility 	totalDistance 	953.64317510595
scalar RSUExampleScenario.node[64].veinsmobility 	totalCO2Emission 	436.65217629863
scalar RSUExampleScenario.node[65].appl 	meanClusterNodes 	2
scalar RSUExampleScenario.node[65].appl 	meanClusterHeadUtility 	37.544086698389
scalar RSUExampleScenario.node[65].appl 	NumberofCH 	0.027027027027027
scalar RSUExampleScenario.node[65].appl 	NumberofON 	0.59459459459459
scalar RSUExampleScenario.node[65].appl 	NumberofFN 	0.37837837837838
scalar RSUExampleScenario.node[65].veinsmobility 	startTime 	156.7
scalar RSUExampleScenario.node[65].veinsmobility 	totalTime 	293.3
scalar RSUExampleScenario.node[65].veinsmobility 	stopTime 	450
scalar RSUExampleScenario.node[65].veinsmobility 	minSpeed 	0
scalar RSUExampleScenario.node[65].veinsmobility 	maxSpeed 	13.999736454366
scalar RSUExampleScenario.node[65].veinsmobility 	totalDistance 	940.40215571625
scalar RSUExampleScenario.node[65].veinsmobility 	totalCO2Emission 	426.6906360032
scalar RSUExampleScenario.node[66].appl 	meanClusterNodes 	2
scalar RSUExampleScenario.node[66].appl 	meanClusterHeadUtility 	16.521181941328
scalar RSUExampleScenario.node[66].appl 	NumberofCH 	0.054054054054054
scalar RSUExampleScenario.node[66].appl 	NumberofON 	0.67567567567568
scalar RSUExampleScenario.node[66].appl 	NumberofFN 	0.27027027027027
scalar RSUExampleScenario.node[66].veinsmobility 	startTime 	159.1
scalar RSUExampleScenario.node[66].veinsmobility 	totalTime 	290.9
scalar RSUExampleScenario.node[66].veinsmobility 	stopTime 	450
scalar RSUExampleScenario.node[66].veinsmobility 	minSpeed 	0
scalar RSUExampleScenario.node[66].veinsmobility 	maxSpeed 	13.99995421801
scalar RSUExampleScenario.node[66].veinsmobility 	totalDistance 	927.74465513963
scalar RSUExampleScenario.node[66].veinsmobility 	totalCO2Emission 	424.13217624957
scalar RSUExampleScenario.node[67].appl 	meanClusterNodes 	4.5
scalar RSUExampleScenario.node[67].appl 	meanClusterHeadUtility 	18.778277400628
scalar RSUExampleScenario.node[67].appl 	NumberofCH 	0.054054054054054
scalar RSUExampleScenario.node[67].appl 	NumberofON 	0.64864864864865
scalar RSUExampleScenario.node[67].appl 	NumberofFN 	0.2972972972973
scalar RSUExampleScenario.node[67].veinsmobility 	startTime 	161.5
scalar RSUExampleScenario.node[67].veinsmobility 	totalTime 	288.5
scalar RSUExampleScenario.node[67].veinsmobility 	stopTime 	450
scalar RSUExampleScenario.node[67].veinsmobility 	minSpeed 	0
scalar RSUExampleScenario.node[67].veinsmobility 	maxSpeed 	13.999768738681
scalar RSUExampleScenario.node[67].veinsmobility 	totalDistance 	912.31797422651
scalar RSUExampleScenario.node[67].veinsmobility 	totalCO2Emission 	422.43041275775
scalar RSUExampleScenario.node[68].appl 	meanClusterNodes 	7.3333333333333
scalar RSUExampleScenario.node[68].appl 	meanClusterHeadUtility 	11.810766084575
scalar RSUExampleScenario.node[68].appl 	NumberofCH 	0.081081081081081
scalar RSUExampleScenario.node[68].appl 	NumberofON 	0.62162162162162
scalar RSUExampleScenario.node[68].appl 	NumberofFN 	0.2972972972973
scalar RSUExampleScenario.node[68].veinsmobility 	startTime 	163.9
scalar RSUExampleScenario.node[68].veinsmobility 	totalTime 	286.1
scalar RSUExampleScenario.node[68].veinsmobility 	stopTime 	450
scalar RSUExampleScenario.node[68].veinsmobility 	minSpeed 	0
scalar RSUExampleScenario.node[68].veinsmobility 	maxSpeed 	13.999556827806
scalar RSUExampleScenario.node[68].veinsmobility 	totalDistance 	891.09719670726
scalar RSUExampleScenario.node[68].veinsmobility 	totalCO2Emission 	417.54154310882
scalar RSUExampleScenario.node[69].appl 	meanClusterNodes 	10
scalar RSUExampleScenario.node[69].appl 	meanClusterHeadUtility 	18.909339582994
scalar RSUExampleScenario.node[69].appl 	NumberofCH 	0.054054054054054
scalar RSUExampleScenario.node[69].appl 	NumberofON 	0.27027027027027
scalar RSUExampleScenario.node[69].appl 	NumberofFN 	0.67567567567568
scalar RSUExampleScenario.node[69].veinsmobility 	startTime 	166.3
scalar RSUExampleScenario.node[69].veinsmobility 	totalTime 	283.7
scalar RSUExampleScenario.node[69].veinsmobility 	stopTime 	450
scalar RSUExampleScenario.node[69].veinsmobility 	minSpeed 	0
scalar RSUExampleScenario.node[69].veinsmobility 	maxSpeed 	13.999317378302
scalar RSUExampleScenario.node[69].veinsmobility 	totalDistance 	858.71564750531
scalar RSUExampleScenario.node[69].veinsmobility 	totalCO2Emission 	412.48252996424
scalar RSUExampleScenario.node[7].appl 	meanClusterNodes 	2.25
scalar RSUExampleScenario.node[7].appl 	meanClusterHeadUtility 	8.5773757193759
scalar RSUExampleScenario.node[7].appl 	NumberofCH 	0.10810810810811
scalar RSUExampleScenario.node[7].appl 	NumberofON 	0.24324324324324
scalar RSUExampleScenario.node[7].appl 	NumberofFN 	0.64864864864865
scalar RSUExampleScenario.node[7].veinsmobility 	startTime 	16.9
scalar RSUExampleScenario.node[7].veinsmobility 	totalTime 	433.1
scalar RSUExampleScenario.node[7].veinsmobility 	stopTime 	450
scalar RSUExampleScenario.node[7].veinsmobility 	minSpeed 	0
scalar RSUExampleScenario.node[7].veinsmobility 	maxSpeed 	13.999960876482
scalar RSUExampleScenario.node[7].veinsmobility 	totalDistance 	2884.7860582351
scalar RSUExampleScenario.node[7].veinsmobility 	totalCO2Emission 	776.96499349339
scalar RSUExampleScenario.node[70].appl 	meanClusterNodes 	0
scalar RSUExampleScenario.node[70].appl 	meanClusterHeadUtility 	0
scalar RSUExampleScenario.node[70].appl 	NumberofCH 	0
scalar RSUExampleScenario.node[70].appl 	NumberofON 	0.83783783783784
scalar RSUExampleScenario.node[70].appl 	NumberofFN 	0.16216216216216
scalar RSUExampleScenario.node[70].veinsmobility 	startTime 	168.8
scalar RSUExampleScenario.node[70].veinsmobility 	totalTime 	281.2
scalar RSUExampleScenario.node[70].veinsmobility 	stopTime 	450
scalar RSUExampleScenario.node[70].veinsmobility 	minSpeed 	0
scalar RSUExampleScenario.node[70].veinsmobility 	maxSpeed 	13.999950236287
scalar RSUExampleScenario.node[70].veinsmobility 	totalDistance 	824.8052267562
scalar RSUExampleScenario.node[70].veinsmobility 	totalCO2Emission 	407.86754096936
scalar RSUExampleScenario.node[71].appl 	meanClusterNodes 	7
scalar RSUExampleScenario.node[71].appl 	meanClusterHeadUtility 	18.01010170072
scalar RSUExampleScenario.node[71].appl 	NumberofCH 	0.054054054054054
scalar RSUExampleScenario.node[71].appl 	NumberofON 	0.78378378378378
scalar RSUExampleScenario.node[71].appl 	NumberofFN 	0.16216216216216
scalar RSUExampleScenario.node[71].veinsmobility 	startTime 	171.2
scalar RSUExampleScenario.node[71].veinsmobility 	totalTime 	278.8
scalar RSUExampleScenario.node[71].veinsmobility 	stopTime 	450
scalar RSUExampleScenario.node[71].veinsmobility 	minSpeed 	0
scalar RSUExampleScenario.node[71].veinsmobility 	maxSpeed 	13.999540585764
scalar RSUExampleScenario.node[71].veinsmobility 	totalDistance 	791.609737442
scalar RSUExampleScenario.node[71].veinsmobility 	totalCO2Emission 	401.38255568263
scalar RSUExampleScenario.node[72].appl 	meanClusterNodes 	5
scalar RSUExampleScenario.node[72].appl 	meanClusterHeadUtility 	19.142215029821
scalar RSUExampleScenario.node[72].appl 	NumberofCH 	0.054054054054054
scalar RSUExampleScenario.node[72].appl 	NumberofON 	0.62162162162162
scalar RSUExampleScenario.node[72].appl 	NumberofFN 	0.32432432432432
scalar RSUExampleScenario.node[72].veinsmobility 	startTime 	173.6
scalar RSUExampleScenario.node[72].veinsmobility 	totalTime 	276.4
scalar RSUExampleScenario.node[72].veinsmobility 	stopTime 	450
scalar RSUExampleScenario.node[72].veinsmobility 	minSpeed 	0
scalar RSUExampleScenario.node[72].veinsmobility 	maxSpeed 	13.999174947098
scalar RSUExampleScenario.node[72].veinsmobility 	totalDistance 	758.5343086124
scalar RSUExampleScenario.node[72].veinsmobility 	totalCO2Emission 	394.67222282924
scalar RSUExampleScenario.node[73].appl 	meanClusterNodes 	6.3333333333333
scalar RSUExampleScenario.node[73].appl 	meanClusterHeadUtility 	10.719954934105
scalar RSUExampleScenario.node[73].appl 	NumberofCH 	0.081081081081081
scalar RSUExampleScenario.node[73].appl 	NumberofON 	0.67567567567568
scalar RSUExampleScenario.node[73].appl 	NumberofFN 	0.24324324324324
scalar RSUExampleScenario.node[73].veinsmobility 	startTime 	176
scalar RSUExampleScenario.node[73].veinsmobility 	totalTime 	274
scalar RSUExampleScenario.node[73].veinsmobility 	stopTime 	450
scalar RSUExampleScenario.node[73].veinsmobility 	minSpeed 	0
scalar RSUExampleScenario.node[73].veinsmobility 	maxSpeed 	13.999603909019
scalar RSUExampleScenario.node[73].veinsmobility 	totalDistance 	723.51927320577
scalar RSUExampleScenario.node[73].veinsmobility 	totalCO2Emission 	390.77170168378
scalar RSUExampleScenario.node[74].appl 	meanClusterNodes 	5
scalar RSUExampleScenario.node[74].appl 	meanClusterHeadUtility 	8.1788323797398
scalar RSUExampleScenario.node[74].appl 	NumberofCH 	0.10810810810811
scalar RSUExampleScenario.node[74].appl 	NumberofON 	0.2972972972973
scalar RSUExampleScenario.node[74].appl 	NumberofFN 	0.59459459459459
scalar RSUExampleScenario.node[74].veinsmobility 	startTime 	178.4
scalar RSUExampleScenario.node[74].veinsmobility 	totalTime 	271.6
scalar RSUExampleScenario.node[74].veinsmobility 	stopTime 	450
scalar RSUExampleScenario.node[74].veinsmobility 	minSpeed 	0
scalar RSUExampleScenario.node[74].veinsmobility 	maxSpeed 	13.999913781951
scalar RSUExampleScenario.node[74].veinsmobility 	totalDistance 	688.9491884535
scalar RSUExampleScenario.node[74].veinsmobility 	totalCO2Emission 	383.97587184201
scalar RSUExampleScenario.node[75].appl 	meanClusterNodes 	8.5
scalar RSUExampleScenario.node[75].appl 	meanClusterHeadUtility 	17.941699401313
scalar RSUExampleScenario.node[75].appl 	NumberofCH 	0.054054054054054
scalar RSUExampleScenario.node[75].appl 	NumberofON 	0.54054054054054
scalar RSUExampleScenario.node[75].appl 	NumberofFN 	0.40540540540541
scalar RSUExampleScenario.node[75].veinsmobility 	startTime 	180.8
scalar RSUExampleScenario.node[75].veinsmobility 	totalTime 	269.2
scalar RSUExampleScenario.node[75].veinsmobility 	stopTime 	450
scalar RSUExampleScenario.node[75].veinsmobility 	minSpeed 	0
scalar RSUExampleScenario.node[75].veinsmobility 	maxSpeed 	13.999619948023
scalar RSUExampleScenario.node[75].veinsmobility 	totalDistance 	657.27485153603
scalar RSUExampleScenario.node[75].veinsmobility 	totalCO2Emission 	377.35896979069
scalar RSUExampleScenario.node[76].appl 	meanClusterNodes 	9
scalar RSUExampleScenario.node[76].appl 	meanClusterHeadUtility 	16.686593011749
scalar RSUExampleScenario.node[76].appl 	NumberofCH 	0.054054054054054
scalar RSUExampleScenario.node[76].appl 	NumberofON 	0.81081081081081
scalar RSUExampleScenario.node[76].appl 	NumberofFN 	0.13513513513514
scalar RSUExampleScenario.node[76].veinsmobility 	startTime 	183.2
scalar RSUExampleScenario.node[76].veinsmobility 	totalTime 	266.8
scalar RSUExampleScenario.node[76].veinsmobility 	stopTime 	450
scalar RSUExampleScenario.node[76].veinsmobility 	minSpeed 	0
scalar RSUExampleScenario.node[76].veinsmobility 	maxSpeed 	13.998893964593
scalar RSUExampleScenario.node[76].veinsmobility 	totalDistance 	622.61246983936
scalar RSUExampleScenario.node[76].veinsmobility 	totalCO2Emission 	373.36990889996
scalar RSUExampleScenario.node[77].appl 	meanClusterNodes 	9
scalar RSUExampleScenario.node[77].appl 	meanClusterHeadUtility 	9.0524994348316
scalar RSUExampleScenario.node[77].appl 	NumberofCH 	0.10810810810811
scalar RSUExampleScenario.node[77].appl 	NumberofON 	0.43243243243243
scalar RSUExampleScenario.node[77].appl 	NumberofFN 	0.45945945945946
scalar RSUExampleScenario.node[77].veinsmobility 	startTime 	185.6
scalar RSUExampleScenario.node[77].veinsmobility 	totalTime 	264.4
scalar RSUExampleScenario.node[77].veinsmobility 	stopTime 	450
scalar RSUExampleScenario.node[77].veinsmobility 	minSpeed 	0
scalar RSUExampleScenario.node[77].veinsmobility 	maxSpeed 	13.999709299353
scalar RSUExampleScenario.node[77].veinsmobility 	totalDistance 	590.39347307534
scalar RSUExampleScenario.node[77].veinsmobility 	totalCO2Emission 	367.30387522948
scalar RSUExampleScenario.node[78].appl 	meanClusterNodes 	0
scalar RSUExampleScenario.node[78].appl 	meanClusterHeadUtility 	0
scalar RSUExampleScenario.node[78].appl 	NumberofCH 	0.027027027027027
scalar RSUExampleScenario.node[78].appl 	NumberofON 	0.2972972972973
scalar RSUExampleScenario.node[78].appl 	NumberofFN 	0.67567567567568
scalar RSUExampleScenario.node[78].veinsmobility 	startTime 	188
scalar RSUExampleScenario.node[78].veinsmobility 	totalTime 	262
scalar RSUExampleScenario.node[78].veinsmobility 	stopTime 	450
scalar RSUExampleScenario.node[78].veinsmobility 	minSpeed 	0
scalar RSUExampleScenario.node[78].veinsmobility 	maxSpeed 	13.999929111837
scalar RSUExampleScenario.node[78].veinsmobility 	totalDistance 	555.75238921557
scalar RSUExampleScenario.node[78].veinsmobility 	totalCO2Emission 	362.07076809194
scalar RSUExampleScenario.node[79].appl 	meanClusterNodes 	6.5
scalar RSUExampleScenario.node[79].appl 	meanClusterHeadUtility 	17.138455444265
scalar RSUExampleScenario.node[79].appl 	NumberofCH 	0.054054054054054
scalar RSUExampleScenario.node[79].appl 	NumberofON 	0.40540540540541
scalar RSUExampleScenario.node[79].appl 	NumberofFN 	0.54054054054054
scalar RSUExampleScenario.node[79].veinsmobility 	startTime 	190.4
scalar RSUExampleScenario.node[79].veinsmobility 	totalTime 	259.6
scalar RSUExampleScenario.node[79].veinsmobility 	stopTime 	450
scalar RSUExampleScenario.node[79].veinsmobility 	minSpeed 	0
scalar RSUExampleScenario.node[79].veinsmobility 	maxSpeed 	13.997298742454
scalar RSUExampleScenario.node[79].veinsmobility 	totalDistance 	522.16144300467
scalar RSUExampleScenario.node[79].veinsmobility 	totalCO2Emission 	356.61595716111
scalar RSUExampleScenario.node[8].appl 	meanClusterNodes 	5
scalar RSUExampleScenario.node[8].appl 	meanClusterHeadUtility 	17.809645815161
scalar RSUExampleScenario.node[8].appl 	NumberofCH 	0.054054054054054
scalar RSUExampleScenario.node[8].appl 	NumberofON 	0.48648648648649
scalar RSUExampleScenario.node[8].appl 	NumberofFN 	0.45945945945946
scalar RSUExampleScenario.node[8].veinsmobility 	startTime 	19.3
scalar RSUExampleScenario.node[8].veinsmobility 	totalTime 	430.7
scalar RSUExampleScenario.node[8].veinsmobility 	stopTime 	450
scalar RSUExampleScenario.node[8].veinsmobility 	minSpeed 	0
scalar RSUExampleScenario.node[8].veinsmobility 	maxSpeed 	13.999927170812
scalar RSUExampleScenario.node[8].veinsmobility 	totalDistance 	2859.7026860194
scalar RSUExampleScenario.node[8].veinsmobility 	totalCO2Emission 	771.7478712228
scalar RSUExampleScenario.node[80].appl 	meanClusterNodes 	9
scalar RSUExampleScenario.node[80].appl 	meanClusterHeadUtility 	17.682787419905
scalar RSUExampleScenario.node[80].appl 	NumberofCH 	0.054054054054054
scalar RSUExampleScenario.node[80].appl 	NumberofON 	0.48648648648649
scalar RSUExampleScenario.node[80].appl 	NumberofFN 	0.45945945945946
scalar RSUExampleScenario.node[80].veinsmobility 	startTime 	192.9
scalar RSUExampleScenario.node[80].veinsmobility 	totalTime 	257.1
scalar RSUExampleScenario.node[80].veinsmobility 	stopTime 	450
scalar RSUExampleScenario.node[80].veinsmobility 	minSpeed 	0
scalar RSUExampleScenario.node[80].veinsmobility 	maxSpeed 	13.99807562504
scalar RSUExampleScenario.node[80].veinsmobility 	totalDistance 	490.21484981669
scalar RSUExampleScenario.node[80].veinsmobility 	totalCO2Emission 	351.29560247342
scalar RSUExampleScenario.node[81].appl 	meanClusterNodes 	5.5
scalar RSUExampleScenario.node[81].appl 	meanClusterHeadUtility 	16.359684203219
scalar RSUExampleScenario.node[81].appl 	NumberofCH 	0.054054054054054
scalar RSUExampleScenario.node[81].appl 	NumberofON 	0.54054054054054
scalar RSUExampleScenario.node[81].appl 	NumberofFN 	0.40540540540541
scalar RSUExampleScenario.node[81].veinsmobility 	startTime 	195.3
scalar RSUExampleScenario.node[81].veinsmobility 	totalTime 	254.7
scalar RSUExampleScenario.node[81].veinsmobility 	stopTime 	450
scalar RSUExampleScenario.node[81].veinsmobility 	minSpeed 	0
scalar RSUExampleScenario.node[81].veinsmobility 	maxSpeed 	13.997070038992
scalar RSUExampleScenario.node[81].veinsmobility 	totalDistance 	456.26220607767
scalar RSUExampleScenario.node[81].veinsmobility 	totalCO2Emission 	344.99457558604
scalar RSUExampleScenario.node[82].appl 	meanClusterNodes 	5
scalar RSUExampleScenario.node[82].appl 	meanClusterHeadUtility 	16.686015950348
scalar RSUExampleScenario.node[82].appl 	NumberofCH 	0.054054054054054
scalar RSUExampleScenario.node[82].appl 	NumberofON 	0.67567567567568
scalar RSUExampleScenario.node[82].appl 	NumberofFN 	0.27027027027027
scalar RSUExampleScenario.node[82].veinsmobility 	startTime 	197.7
scalar RSUExampleScenario.node[82].veinsmobility 	totalTime 	252.3
scalar RSUExampleScenario.node[82].veinsmobility 	stopTime 	450
scalar RSUExampleScenario.node[82].veinsmobility 	minSpeed 	0
scalar RSUExampleScenario.node[82].veinsmobility 	maxSpeed 	13.998487245191
scalar RSUExampleScenario.node[82].veinsmobility 	totalDistance 	422.22941775118
scalar RSUExampleScenario.node[82].veinsmobility 	totalCO2Emission 	340.1138724479
scalar RSUExampleScenario.node[83].appl 	meanClusterNodes 	6.5
scalar RSUExampleScenario.node[83].appl 	meanClusterHeadUtility 	17.492661582974
scalar RSUExampleScenario.node[83].appl 	NumberofCH 	0.054054054054054
scalar RSUExampleScenario.node[83].appl 	NumberofON 	0.45945945945946
scalar RSUExampleScenario.node[83].appl 	NumberofFN 	0.48648648648649
scalar RSUExampleScenario.node[83].veinsmobility 	startTime 	200.1
scalar RSUExampleScenario.node[83].veinsmobility 	totalTime 	249.9
scalar RSUExampleScenario.node[83].veinsmobility 	stopTime 	450
scalar RSUExampleScenario.node[83].veinsmobility 	minSpeed 	0
scalar RSUExampleScenario.node[83].veinsmobility 	maxSpeed 	13.998879252961
scalar RSUExampleScenario.node[83].veinsmobility 	totalDistance 	388.10876185058
scalar RSUExampleScenario.node[83].veinsmobility 	totalCO2Emission 	333.23121028852
scalar RSUExampleScenario.node[84].appl 	meanClusterNodes 	7.5
scalar RSUExampleScenario.node[84].appl 	meanClusterHeadUtility 	8.8583121952198
scalar RSUExampleScenario.node[84].appl 	NumberofCH 	0.10810810810811
scalar RSUExampleScenario.node[84].appl 	NumberofON 	0.32432432432432
scalar RSUExampleScenario.node[84].appl 	NumberofFN 	0.56756756756757
scalar RSUExampleScenario.node[84].veinsmobility 	startTime 	202.5
scalar RSUExampleScenario.node[84].veinsmobility 	totalTime 	247.5
scalar RSUExampleScenario.node[84].veinsmobility 	stopTime 	450
scalar RSUExampleScenario.node[84].veinsmobility 	minSpeed 	0
scalar RSUExampleScenario.node[84].veinsmobility 	maxSpeed 	13.999635515332
scalar RSUExampleScenario.node[84].veinsmobility 	totalDistance 	355.42144845837
scalar RSUExampleScenario.node[84].veinsmobility 	totalCO2Emission 	328.12927448779
scalar RSUExampleScenario.node[85].appl 	meanClusterNodes 	0
scalar RSUExampleScenario.node[85].appl 	meanClusterHeadUtility 	0
scalar RSUExampleScenario.node[85].appl 	NumberofCH 	0
scalar RSUExampleScenario.node[85].appl 	NumberofON 	0.37837837837838
scalar RSUExampleScenario.node[85].appl 	NumberofFN 	0.62162162162162
scalar RSUExampleScenario.node[85].veinsmobility 	startTime 	204.9
scalar RSUExampleScenario.node[85].veinsmobility 	totalTime 	245.1
scalar RSUExampleScenario.node[85].veinsmobility 	stopTime 	450
scalar RSUExampleScenario.node[85].veinsmobility 	minSpeed 	0
scalar RSUExampleScenario.node[85].veinsmobility 	maxSpeed 	13.993637433923
scalar RSUExampleScenario.node[85].veinsmobility 	totalDistance 	321.66108535349
scalar RSUExampleScenario.node[85].veinsmobility 	totalCO2Emission 	321.95660771718
scalar RSUExampleScenario.node[86].appl 	meanClusterNodes 	5
scalar RSUExampleScenario.node[86].appl 	meanClusterHeadUtility 	8.8369082043695
scalar RSUExampleScenario.node[86].appl 	NumberofCH 	0.10810810810811
scalar RSUExampleScenario.node[86].appl 	NumberofON 	0.35135135135135
scalar RSUExampleScenario.node[86].appl 	NumberofFN 	0.54054054054054
scalar RSUExampleScenario.node[86].veinsmobility 	startTime 	207.3
scalar RSUExampleScenario.node[86].veinsmobility 	totalTime 	242.7
scalar RSUExampleScenario.node[86].veinsmobility 	stopTime 	450
scalar RSUExampleScenario.node[86].veinsmobility 	minSpeed 	0
scalar RSUExampleScenario.node[86].veinsmobility 	maxSpeed 	13.88660227403
scalar RSUExampleScenario.node[86].veinsmobility 	totalDistance 	286.61844373622
scalar RSUExampleScenario.node[86].veinsmobility 	totalCO2Emission 	315.71833965734
scalar RSUExampleScenario.node[87].appl 	meanClusterNodes 	8.5
scalar RSUExampleScenario.node[87].appl 	meanClusterHeadUtility 	18.53937879249
scalar RSUExampleScenario.node[87].appl 	NumberofCH 	0.054054054054054
scalar RSUExampleScenario.node[87].appl 	NumberofON 	0.51351351351351
scalar RSUExampleScenario.node[87].appl 	NumberofFN 	0.43243243243243
scalar RSUExampleScenario.node[87].veinsmobility 	startTime 	209.7
scalar RSUExampleScenario.node[87].veinsmobility 	totalTime 	240.3
scalar RSUExampleScenario.node[87].veinsmobility 	stopTime 	450
scalar RSUExampleScenario.node[87].veinsmobility 	minSpeed 	0
scalar RSUExampleScenario.node[87].veinsmobility 	maxSpeed 	13.828761995095
scalar RSUExampleScenario.node[87].veinsmobility 	totalDistance 	248.9414401737
scalar RSUExampleScenario.node[87].veinsmobility 	totalCO2Emission 	298.75276394211
scalar RSUExampleScenario.node[88].appl 	meanClusterNodes 	9.5
scalar RSUExampleScenario.node[88].appl 	meanClusterHeadUtility 	9.267753841675
scalar RSUExampleScenario.node[88].appl 	NumberofCH 	0.10810810810811
scalar RSUExampleScenario.node[88].appl 	NumberofON 	0.37837837837838
scalar RSUExampleScenario.node[88].appl 	NumberofFN 	0.51351351351351
scalar RSUExampleScenario.node[88].veinsmobility 	startTime 	212.1
scalar RSUExampleScenario.node[88].veinsmobility 	totalTime 	237.9
scalar RSUExampleScenario.node[88].veinsmobility 	stopTime 	450
scalar RSUExampleScenario.node[88].veinsmobility 	minSpeed 	0
scalar RSUExampleScenario.node[88].veinsmobility 	maxSpeed 	13.854958570634
scalar RSUExampleScenario.node[88].veinsmobility 	totalDistance 	226.02371995458
scalar RSUExampleScenario.node[88].veinsmobility 	totalCO2Emission 	287.30359075947
scalar RSUExampleScenario.node[89].appl 	meanClusterNodes 	0.5
scalar RSUExampleScenario.node[89].appl 	meanClusterHeadUtility 	16.273485728823
scalar RSUExampleScenario.node[89].appl 	NumberofCH 	0.054054054054054
scalar RSUExampleScenario.node[89].appl 	NumberofON 	0.72972972972973
scalar RSUExampleScenario.node[89].appl 	NumberofFN 	0.21621621621622
scalar RSUExampleScenario.node[89].veinsmobility 	startTime 	214.5
scalar RSUExampleScenario.node[89].veinsmobility 	totalTime 	235.5
scalar RSUExampleScenario.node[89].veinsmobility 	stopTime 	450
scalar RSUExampleScenario.node[89].veinsmobility 	minSpeed 	0
scalar RSUExampleScenario.node[89].veinsmobility 	maxSpeed 	13.817144086559
scalar RSUExampleScenario.node[89].veinsmobility 	totalDistance 	215.2659049996
scalar RSUExampleScenario.node[89].veinsmobility 	totalCO2Emission 	282.73370123844
scalar RSUExampleScenario.node[9].appl 	meanClusterNodes 	4
scalar RSUExampleScenario.node[9].appl 	meanClusterHeadUtility 	12.674117191304
scalar RSUExampleScenario.node[9].appl 	NumberofCH 	0.081081081081081
scalar RSUExampleScenario.node[9].appl 	NumberofON 	0.24324324324324
scalar RSUExampleScenario.node[9].appl 	NumberofFN 	0.67567567567568
scalar RSUExampleScenario.node[9].veinsmobility 	startTime 	21.7
scalar RSUExampleScenario.node[9].veinsmobility 	totalTime 	428.3
scalar RSUExampleScenario.node[9].veinsmobility 	stopTime 	450
scalar RSUExampleScenario.node[9].veinsmobility 	minSpeed 	0
scalar RSUExampleScenario.node[9].veinsmobility 	maxSpeed 	13.999991875861
scalar RSUExampleScenario.node[9].veinsmobility 	totalDistance 	2825.6121058294
scalar RSUExampleScenario.node[9].veinsmobility 	totalCO2Emission 	766.85278758126
scalar RSUExampleScenario.node[90].appl 	meanClusterNodes 	3.5
scalar RSUExampleScenario.node[90].appl 	meanClusterHeadUtility 	19.049182107033
scalar RSUExampleScenario.node[90].appl 	NumberofCH 	0.054054054054054
scalar RSUExampleScenario.node[90].appl 	NumberofON 	0.64864864864865
scalar RSUExampleScenario.node[90].appl 	NumberofFN 	0.2972972972973
scalar RSUExampleScenario.node[90].veinsmobility 	startTime 	217
scalar RSUExampleScenario.node[90].veinsmobility 	totalTime 	233
scalar RSUExampleScenario.node[90].veinsmobility 	stopTime 	450
scalar RSUExampleScenario.node[90].veinsmobility 	minSpeed 	0
scalar RSUExampleScenario.node[90].veinsmobility 	maxSpeed 	13.827563704737
scalar RSUExampleScenario.node[90].veinsmobility 	totalDistance 	201.92182880218
scalar RSUExampleScenario.node[90].veinsmobility 	totalCO2Emission 	280.30885780688
scalar RSUExampleScenario.node[91].appl 	meanClusterNodes 	0
scalar RSUExampleScenario.node[91].appl 	meanClusterHeadUtility 	0
scalar RSUExampleScenario.node[91].appl 	NumberofCH 	0.054054054054054
scalar RSUExampleScenario.node[91].appl 	NumberofON 	0.45945945945946
scalar RSUExampleScenario.node[91].appl 	NumberofFN 	0.48648648648649
scalar RSUExampleScenario.node[91].veinsmobility 	startTime 	219.4
scalar RSUExampleScenario.node[91].veinsmobility 	totalTime 	230.6
scalar RSUExampleScenario.node[91].veinsmobility 	stopTime 	450
scalar RSUExampleScenario.node[91].veinsmobility 	minSpeed 	0
scalar RSUExampleScenario.node[91].veinsmobility 	maxSpeed 	13.607169424319
scalar RSUExampleScenario.node[91].veinsmobility 	totalDistance 	185.08035675313
scalar RSUExampleScenario.node[91].veinsmobility 	totalCO2Emission 	276.6779192198
scalar RSUExampleScenario.node[92].appl 	meanClusterNodes 	2.75
scalar RSUExampleScenario.node[92].appl 	meanClusterHeadUtility 	9.4783292498795
scalar RSUExampleScenario.node[92].appl 	NumberofCH 	0.10810810810811
scalar RSUExampleScenario.node[92].appl 	NumberofON 	0.62162162162162
scalar RSUExampleScenario.node[92].appl 	NumberofFN 	0.27027027027027
scalar RSUExampleScenario.node[92].veinsmobility 	startTime 	221.8
scalar RSUExampleScenario.node[92].veinsmobility 	totalTime 	228.2
scalar RSUExampleScenario.node[92].veinsmobility 	stopTime 	450
scalar RSUExampleScenario.node[92].veinsmobility 	minSpeed 	0
scalar RSUExampleScenario.node[92].veinsmobility 	maxSpeed 	13.883932209073
scalar RSUExampleScenario.node[92].veinsmobility 	totalDistance 	151.02804664589
scalar RSUExampleScenario.node[92].veinsmobility 	totalCO2Emission 	264.60973783119
scalar RSUExampleScenario.node[93].appl 	meanClusterNodes 	6
scalar RSUExampleScenario.node[93].appl 	meanClusterHeadUtility 	17.865988928296
scalar RSUExampleScenario.node[93].appl 	NumberofCH 	0.054054054054054
scalar RSUExampleScenario.node[93].appl 	NumberofON 	0.35135135135135
scalar RSUExampleScenario.node[93].appl 	NumberofFN 	0.59459459459459
scalar RSUExampleScenario.node[93].veinsmobility 	startTime 	224.2
scalar RSUExampleScenario.node[93].veinsmobility 	totalTime 	225.8
scalar RSUExampleScenario.node[93].veinsmobility 	stopTime 	450
scalar RSUExampleScenario.node[93].veinsmobility 	minSpeed 	0
scalar RSUExampleScenario.node[93].veinsmobility 	maxSpeed 	13.879125282413
scalar RSUExampleScenario.node[93].veinsmobility 	totalDistance 	123.59529191058
scalar RSUExampleScenario.node[93].veinsmobility 	totalCO2Emission 	251.70256635627
scalar RSUExampleScenario.node[94].appl 	meanClusterNodes 	6
scalar RSUExampleScenario.node[94].appl 	meanClusterHeadUtility 	9.6313430198358
scalar RSUExampleScenario.node[94].appl 	NumberofCH 	0.10810810810811
scalar RSUExampleScenario.node[94].appl 	NumberofON 	0.37837837837838
scalar RSUExampleScenario.node[94].appl 	NumberofFN 	0.51351351351351
scalar RSUExampleScenario.node[94].veinsmobility 	startTime 	226.6
scalar RSUExampleScenario.node[94].veinsmobility 	totalTime 	223.4
scalar RSUExampleScenario.node[94].veinsmobility 	stopTime 	450
scalar RSUExampleScenario.node[94].veinsmobility 	minSpeed 	0
scalar RSUExampleScenario.node[94].veinsmobility 	maxSpeed 	13.786073616522
scalar RSUExampleScenario.node[94].veinsmobility 	totalDistance 	112.300859331
scalar RSUExampleScenario.node[94].veinsmobility 	totalCO2Emission 	246.13345093421
scalar RSUExampleScenario.node[95].appl 	meanClusterNodes 	4.5
scalar RSUExampleScenario.node[95].appl 	meanClusterHeadUtility 	19.337457737762
scalar RSUExampleScenario.node[95].appl 	NumberofCH 	0.054054054054054
scalar RSUExampleScenario.node[95].appl 	NumberofON 	0.56756756756757
scalar RSUExampleScenario.node[95].appl 	NumberofFN 	0.37837837837838
scalar RSUExampleScenario.node[95].veinsmobility 	startTime 	229
scalar RSUExampleScenario.node[95].veinsmobility 	totalTime 	221
scalar RSUExampleScenario.node[95].veinsmobility 	stopTime 	450
scalar RSUExampleScenario.node[95].veinsmobility 	minSpeed 	0
scalar RSUExampleScenario.node[95].veinsmobility 	maxSpeed 	13.887470207978
scalar RSUExampleScenario.node[95].veinsmobility 	totalDistance 	99.245555317917
scalar RSUExampleScenario.node[95].veinsmobility 	totalCO2Emission 	242.83670790752
scalar RSUExampleScenario.node[96].appl 	meanClusterNodes 	4
scalar RSUExampleScenario.node[96].appl 	meanClusterHeadUtility 	19.884886136699
scalar RSUExampleScenario.node[96].appl 	NumberofCH 	0.054054054054054
scalar RSUExampleScenario.node[96].appl 	NumberofON 	0.51351351351351
scalar RSUExampleScenario.node[96].appl 	NumberofFN 	0.43243243243243
scalar RSUExampleScenario.node[96].veinsmobility 	startTime 	231.4
scalar RSUExampleScenario.node[96].veinsmobility 	totalTime 	218.6
scalar RSUExampleScenario.node[96].veinsmobility 	stopTime 	450
scalar RSUExampleScenario.node[96].veinsmobility 	minSpeed 	0
scalar RSUExampleScenario.node[96].veinsmobility 	maxSpeed 	13.763246282923
scalar RSUExampleScenario.node[96].veinsmobility 	totalDistance 	83.12180803123
scalar RSUExampleScenario.node[96].veinsmobility 	totalCO2Emission 	239.64219799365
scalar RSUExampleScenario.node[97].appl 	meanClusterNodes 	1.5
scalar RSUExampleScenario.node[97].appl 	meanClusterHeadUtility 	16.328112824385
scalar RSUExampleScenario.node[97].appl 	NumberofCH 	0.054054054054054
scalar RSUExampleScenario.node[97].appl 	NumberofON 	0.54054054054054
scalar RSUExampleScenario.node[97].appl 	NumberofFN 	0.40540540540541
scalar RSUExampleScenario.node[97].veinsmobility 	startTime 	233.8
scalar RSUExampleScenario.node[97].veinsmobility 	totalTime 	216.2
scalar RSUExampleScenario.node[97].veinsmobility 	stopTime 	450
scalar RSUExampleScenario.node[97].veinsmobility 	minSpeed 	0
scalar RSUExampleScenario.node[97].veinsmobility 	maxSpeed 	12.602223210065
scalar RSUExampleScenario.node[97].veinsmobility 	totalDistance 	58.725036158092
scalar RSUExampleScenario.node[97].veinsmobility 	totalCO2Emission 	232.8758866106
scalar RSUExampleScenario.node[98].appl 	meanClusterNodes 	4.75
scalar RSUExampleScenario.node[98].appl 	meanClusterHeadUtility 	9.150342393632
scalar RSUExampleScenario.node[98].appl 	NumberofCH 	0.10810810810811
scalar RSUExampleScenario.node[98].appl 	NumberofON 	0.7027027027027
scalar RSUExampleScenario.node[98].appl 	NumberofFN 	0.18918918918919
scalar RSUExampleScenario.node[98].veinsmobility 	startTime 	236.2
scalar RSUExampleScenario.node[98].veinsmobility 	totalTime 	213.8
scalar RSUExampleScenario.node[98].veinsmobility 	stopTime 	450
scalar RSUExampleScenario.node[98].veinsmobility 	minSpeed 	0
scalar RSUExampleScenario.node[98].veinsmobility 	maxSpeed 	7.7260003562903
scalar RSUExampleScenario.node[98].veinsmobility 	totalDistance 	21.846990051634
scalar RSUExampleScenario.node[98].veinsmobility 	totalCO2Emission 	216.60526135892
scalar RSUExampleScenario.node[99].appl 	meanClusterNodes 	3
scalar RSUExampleScenario.node[99].appl 	meanClusterHeadUtility 	17.712976087984
scalar RSUExampleScenario.node[99].appl 	NumberofCH 	0.054054054054054
scalar RSUExampleScenario.node[99].appl 	NumberofON 	0.54054054054054
scalar RSUExampleScenario.node[99].appl 	NumberofFN 	0.40540540540541
scalar RSUExampleScenario.node[99].veinsmobility 	startTime 	238.6
scalar RSUExampleScenario.node[99].veinsmobility 	totalTime 	211.4
scalar RSUExampleScenario.node[99].veinsmobility 	stopTime 	450
scalar RSUExampleScenario.node[99].veinsmobility 	minSpeed 	0
scalar RSUExampleScenario.node[99].veinsmobility 	maxSpeed 	3.064804731849
scalar RSUExampleScenario.node[99].veinsmobility 	totalDistance 	3.25676178349
scalar RSUExampleScenario.node[99].veinsmobility 	totalCO2Emission 	207.0853746162
