version 2
run statisticLeach-551-20150323-11:17:07-13400
attr c 14
attr configname statisticLeach
attr datetime 20150323-11:17:07
attr experiment statisticLeach
attr inifile omnetpp.ini
attr iterationvars "$p=1/8, $c=14"
attr iterationvars2 "$p=1/8, $c=14, $repetition=1"
attr measurement "$p=1/8, $c=14"
attr network RSUExampleScenario
attr p 1/8
attr processid 13400
attr repetition 1
attr replication #1
attr resultdir results
attr runnumber 551
attr seedset 551

scalar . 	c 	14
scalar RSUExampleScenario.node[0].appl 	meanClusterNodes 	4
scalar RSUExampleScenario.node[0].appl 	meanClusterHeadUtility 	8.428894678613
scalar RSUExampleScenario.node[0].appl 	NumberofCH 	0.10810810810811
scalar RSUExampleScenario.node[0].appl 	NumberofON 	0.32432432432432
scalar RSUExampleScenario.node[0].appl 	NumberofFN 	0.56756756756757
scalar RSUExampleScenario.node[0].veinsmobility 	startTime 	0.1
scalar RSUExampleScenario.node[0].veinsmobility 	totalTime 	449.9
scalar RSUExampleScenario.node[0].veinsmobility 	stopTime 	450
scalar RSUExampleScenario.node[0].veinsmobility 	minSpeed 	0
scalar RSUExampleScenario.node[0].veinsmobility 	maxSpeed 	13.999933395786
scalar RSUExampleScenario.node[0].veinsmobility 	totalDistance 	3134.7271242342
scalar RSUExampleScenario.node[0].veinsmobility 	totalCO2Emission 	839.35892250229
scalar RSUExampleScenario.node[1].appl 	meanClusterNodes 	3.75
scalar RSUExampleScenario.node[1].appl 	meanClusterHeadUtility 	9.834149089394
scalar RSUExampleScenario.node[1].appl 	NumberofCH 	0.10810810810811
scalar RSUExampleScenario.node[1].appl 	NumberofON 	0.21621621621622
scalar RSUExampleScenario.node[1].appl 	NumberofFN 	0.67567567567568
scalar RSUExampleScenario.node[1].veinsmobility 	startTime 	2.5
scalar RSUExampleScenario.node[1].veinsmobility 	totalTime 	447.5
scalar RSUExampleScenario.node[1].veinsmobility 	stopTime 	450
scalar RSUExampleScenario.node[1].veinsmobility 	minSpeed 	0
scalar RSUExampleScenario.node[1].veinsmobility 	maxSpeed 	13.999996054145
scalar RSUExampleScenario.node[1].veinsmobility 	totalDistance 	3081.1100208423
scalar RSUExampleScenario.node[1].veinsmobility 	totalCO2Emission 	828.72878604588
scalar RSUExampleScenario.node[10].appl 	meanClusterNodes 	3.4
scalar RSUExampleScenario.node[10].appl 	meanClusterHeadUtility 	7.0812856422919
scalar RSUExampleScenario.node[10].appl 	NumberofCH 	0.13513513513514
scalar RSUExampleScenario.node[10].appl 	NumberofON 	0.35135135135135
scalar RSUExampleScenario.node[10].appl 	NumberofFN 	0.51351351351351
scalar RSUExampleScenario.node[10].veinsmobility 	startTime 	24.2
scalar RSUExampleScenario.node[10].veinsmobility 	totalTime 	425.8
scalar RSUExampleScenario.node[10].veinsmobility 	stopTime 	450
scalar RSUExampleScenario.node[10].veinsmobility 	minSpeed 	0
scalar RSUExampleScenario.node[10].veinsmobility 	maxSpeed 	13.999999221507
scalar RSUExampleScenario.node[10].veinsmobility 	totalDistance 	2786.7908927292
scalar RSUExampleScenario.node[10].veinsmobility 	totalCO2Emission 	758.30099139544
scalar RSUExampleScenario.node[11].appl 	meanClusterNodes 	4
scalar RSUExampleScenario.node[11].appl 	meanClusterHeadUtility 	8.8229090719692
scalar RSUExampleScenario.node[11].appl 	NumberofCH 	0.10810810810811
scalar RSUExampleScenario.node[11].appl 	NumberofON 	0.2972972972973
scalar RSUExampleScenario.node[11].appl 	NumberofFN 	0.59459459459459
scalar RSUExampleScenario.node[11].veinsmobility 	startTime 	26.6
scalar RSUExampleScenario.node[11].veinsmobility 	totalTime 	423.4
scalar RSUExampleScenario.node[11].veinsmobility 	stopTime 	450
scalar RSUExampleScenario.node[11].veinsmobility 	minSpeed 	0
scalar RSUExampleScenario.node[11].veinsmobility 	maxSpeed 	13.999900601364
scalar RSUExampleScenario.node[11].veinsmobility 	totalDistance 	2756.5923107524
scalar RSUExampleScenario.node[11].veinsmobility 	totalCO2Emission 	752.43678532515
scalar RSUExampleScenario.node[12].appl 	meanClusterNodes 	4.25
scalar RSUExampleScenario.node[12].appl 	meanClusterHeadUtility 	8.6424458376174
scalar RSUExampleScenario.node[12].appl 	NumberofCH 	0.10810810810811
scalar RSUExampleScenario.node[12].appl 	NumberofON 	0.59459459459459
scalar RSUExampleScenario.node[12].appl 	NumberofFN 	0.2972972972973
scalar RSUExampleScenario.node[12].veinsmobility 	startTime 	29
scalar RSUExampleScenario.node[12].veinsmobility 	totalTime 	421
scalar RSUExampleScenario.node[12].veinsmobility 	stopTime 	450
scalar RSUExampleScenario.node[12].veinsmobility 	minSpeed 	0
scalar RSUExampleScenario.node[12].veinsmobility 	maxSpeed 	13.999875869364
scalar RSUExampleScenario.node[12].veinsmobility 	totalDistance 	2717.8708130732
scalar RSUExampleScenario.node[12].veinsmobility 	totalCO2Emission 	748.85049114058
scalar RSUExampleScenario.node[13].appl 	meanClusterNodes 	3.6666666666667
scalar RSUExampleScenario.node[13].appl 	meanClusterHeadUtility 	5.7355008037429
scalar RSUExampleScenario.node[13].appl 	NumberofCH 	0.16216216216216
scalar RSUExampleScenario.node[13].appl 	NumberofON 	0.7027027027027
scalar RSUExampleScenario.node[13].appl 	NumberofFN 	0.13513513513514
scalar RSUExampleScenario.node[13].veinsmobility 	startTime 	31.4
scalar RSUExampleScenario.node[13].veinsmobility 	totalTime 	418.6
scalar RSUExampleScenario.node[13].veinsmobility 	stopTime 	450
scalar RSUExampleScenario.node[13].veinsmobility 	minSpeed 	0
scalar RSUExampleScenario.node[13].veinsmobility 	maxSpeed 	13.999968733415
scalar RSUExampleScenario.node[13].veinsmobility 	totalDistance 	2683.3669512635
scalar RSUExampleScenario.node[13].veinsmobility 	totalCO2Emission 	742.02285207938
scalar RSUExampleScenario.node[14].appl 	meanClusterNodes 	2.75
scalar RSUExampleScenario.node[14].appl 	meanClusterHeadUtility 	8.2217203573583
scalar RSUExampleScenario.node[14].appl 	NumberofCH 	0.10810810810811
scalar RSUExampleScenario.node[14].appl 	NumberofON 	0.54054054054054
scalar RSUExampleScenario.node[14].appl 	NumberofFN 	0.35135135135135
scalar RSUExampleScenario.node[14].veinsmobility 	startTime 	33.8
scalar RSUExampleScenario.node[14].veinsmobility 	totalTime 	416.2
scalar RSUExampleScenario.node[14].veinsmobility 	stopTime 	450
scalar RSUExampleScenario.node[14].veinsmobility 	minSpeed 	0
scalar RSUExampleScenario.node[14].veinsmobility 	maxSpeed 	13.999959680564
scalar RSUExampleScenario.node[14].veinsmobility 	totalDistance 	2647.4784551217
scalar RSUExampleScenario.node[14].veinsmobility 	totalCO2Emission 	734.37462976028
scalar RSUExampleScenario.node[15].appl 	meanClusterNodes 	2.8
scalar RSUExampleScenario.node[15].appl 	meanClusterHeadUtility 	6.6582892867244
scalar RSUExampleScenario.node[15].appl 	NumberofCH 	0.13513513513514
scalar RSUExampleScenario.node[15].appl 	NumberofON 	0.72972972972973
scalar RSUExampleScenario.node[15].appl 	NumberofFN 	0.13513513513514
scalar RSUExampleScenario.node[15].veinsmobility 	startTime 	36.2
scalar RSUExampleScenario.node[15].veinsmobility 	totalTime 	413.8
scalar RSUExampleScenario.node[15].veinsmobility 	stopTime 	450
scalar RSUExampleScenario.node[15].veinsmobility 	minSpeed 	0
scalar RSUExampleScenario.node[15].veinsmobility 	maxSpeed 	13.99998068034
scalar RSUExampleScenario.node[15].veinsmobility 	totalDistance 	2616.5380241107
scalar RSUExampleScenario.node[15].veinsmobility 	totalCO2Emission 	731.78944510976
scalar RSUExampleScenario.node[16].appl 	meanClusterNodes 	6.75
scalar RSUExampleScenario.node[16].appl 	meanClusterHeadUtility 	8.1480957104798
scalar RSUExampleScenario.node[16].appl 	NumberofCH 	0.10810810810811
scalar RSUExampleScenario.node[16].appl 	NumberofON 	0.62162162162162
scalar RSUExampleScenario.node[16].appl 	NumberofFN 	0.27027027027027
scalar RSUExampleScenario.node[16].veinsmobility 	startTime 	38.6
scalar RSUExampleScenario.node[16].veinsmobility 	totalTime 	411.4
scalar RSUExampleScenario.node[16].veinsmobility 	stopTime 	450
scalar RSUExampleScenario.node[16].veinsmobility 	minSpeed 	0
scalar RSUExampleScenario.node[16].veinsmobility 	maxSpeed 	13.999763961697
scalar RSUExampleScenario.node[16].veinsmobility 	totalDistance 	2577.1811865663
scalar RSUExampleScenario.node[16].veinsmobility 	totalCO2Emission 	724.09799824582
scalar RSUExampleScenario.node[17].appl 	meanClusterNodes 	1.6666666666667
scalar RSUExampleScenario.node[17].appl 	meanClusterHeadUtility 	5.5117479439321
scalar RSUExampleScenario.node[17].appl 	NumberofCH 	0.16216216216216
scalar RSUExampleScenario.node[17].appl 	NumberofON 	0.56756756756757
scalar RSUExampleScenario.node[17].appl 	NumberofFN 	0.27027027027027
scalar RSUExampleScenario.node[17].veinsmobility 	startTime 	41
scalar RSUExampleScenario.node[17].veinsmobility 	totalTime 	409
scalar RSUExampleScenario.node[17].veinsmobility 	stopTime 	450
scalar RSUExampleScenario.node[17].veinsmobility 	minSpeed 	0
scalar RSUExampleScenario.node[17].veinsmobility 	maxSpeed 	13.99981005236
scalar RSUExampleScenario.node[17].veinsmobility 	totalDistance 	2542.7805180066
scalar RSUExampleScenario.node[17].veinsmobility 	totalCO2Emission 	718.88338820862
scalar RSUExampleScenario.node[18].appl 	meanClusterNodes 	2.5
scalar RSUExampleScenario.node[18].appl 	meanClusterHeadUtility 	6.8245955913901
scalar RSUExampleScenario.node[18].appl 	NumberofCH 	0.16216216216216
scalar RSUExampleScenario.node[18].appl 	NumberofON 	0.64864864864865
scalar RSUExampleScenario.node[18].appl 	NumberofFN 	0.18918918918919
scalar RSUExampleScenario.node[18].veinsmobility 	startTime 	43.4
scalar RSUExampleScenario.node[18].veinsmobility 	totalTime 	406.6
scalar RSUExampleScenario.node[18].veinsmobility 	stopTime 	450
scalar RSUExampleScenario.node[18].veinsmobility 	minSpeed 	0
scalar RSUExampleScenario.node[18].veinsmobility 	maxSpeed 	13.999877887119
scalar RSUExampleScenario.node[18].veinsmobility 	totalDistance 	2505.8099350401
scalar RSUExampleScenario.node[18].veinsmobility 	totalCO2Emission 	713.98324070716
scalar RSUExampleScenario.node[19].appl 	meanClusterNodes 	1.6666666666667
scalar RSUExampleScenario.node[19].appl 	meanClusterHeadUtility 	5.6728011429095
scalar RSUExampleScenario.node[19].appl 	NumberofCH 	0.16216216216216
scalar RSUExampleScenario.node[19].appl 	NumberofON 	0.64864864864865
scalar RSUExampleScenario.node[19].appl 	NumberofFN 	0.18918918918919
scalar RSUExampleScenario.node[19].veinsmobility 	startTime 	45.8
scalar RSUExampleScenario.node[19].veinsmobility 	totalTime 	404.2
scalar RSUExampleScenario.node[19].veinsmobility 	stopTime 	450
scalar RSUExampleScenario.node[19].veinsmobility 	minSpeed 	0
scalar RSUExampleScenario.node[19].veinsmobility 	maxSpeed 	13.999985348964
scalar RSUExampleScenario.node[19].veinsmobility 	totalDistance 	2474.0928162362
scalar RSUExampleScenario.node[19].veinsmobility 	totalCO2Emission 	704.46749868058
scalar RSUExampleScenario.node[2].appl 	meanClusterNodes 	2.1666666666667
scalar RSUExampleScenario.node[2].appl 	meanClusterHeadUtility 	5.9479507641862
scalar RSUExampleScenario.node[2].appl 	NumberofCH 	0.16216216216216
scalar RSUExampleScenario.node[2].appl 	NumberofON 	0.40540540540541
scalar RSUExampleScenario.node[2].appl 	NumberofFN 	0.43243243243243
scalar RSUExampleScenario.node[2].veinsmobility 	startTime 	4.9
scalar RSUExampleScenario.node[2].veinsmobility 	totalTime 	445.1
scalar RSUExampleScenario.node[2].veinsmobility 	stopTime 	450
scalar RSUExampleScenario.node[2].veinsmobility 	minSpeed 	0
scalar RSUExampleScenario.node[2].veinsmobility 	maxSpeed 	13.999919452113
scalar RSUExampleScenario.node[2].veinsmobility 	totalDistance 	3034.1922284166
scalar RSUExampleScenario.node[2].veinsmobility 	totalCO2Emission 	819.6939187385
scalar RSUExampleScenario.node[20].appl 	meanClusterNodes 	2.25
scalar RSUExampleScenario.node[20].appl 	meanClusterHeadUtility 	8.8099683765643
scalar RSUExampleScenario.node[20].appl 	NumberofCH 	0.10810810810811
scalar RSUExampleScenario.node[20].appl 	NumberofON 	0.83783783783784
scalar RSUExampleScenario.node[20].appl 	NumberofFN 	0.054054054054054
scalar RSUExampleScenario.node[20].veinsmobility 	startTime 	48.3
scalar RSUExampleScenario.node[20].veinsmobility 	totalTime 	401.7
scalar RSUExampleScenario.node[20].veinsmobility 	stopTime 	450
scalar RSUExampleScenario.node[20].veinsmobility 	minSpeed 	0
scalar RSUExampleScenario.node[20].veinsmobility 	maxSpeed 	13.999925738894
scalar RSUExampleScenario.node[20].veinsmobility 	totalDistance 	2437.824308346
scalar RSUExampleScenario.node[20].veinsmobility 	totalCO2Emission 	700.97538504795
scalar RSUExampleScenario.node[21].appl 	meanClusterNodes 	4.5
scalar RSUExampleScenario.node[21].appl 	meanClusterHeadUtility 	9.2138602099496
scalar RSUExampleScenario.node[21].appl 	NumberofCH 	0.10810810810811
scalar RSUExampleScenario.node[21].appl 	NumberofON 	0.7027027027027
scalar RSUExampleScenario.node[21].appl 	NumberofFN 	0.18918918918919
scalar RSUExampleScenario.node[21].veinsmobility 	startTime 	50.7
scalar RSUExampleScenario.node[21].veinsmobility 	totalTime 	399.3
scalar RSUExampleScenario.node[21].veinsmobility 	stopTime 	450
scalar RSUExampleScenario.node[21].veinsmobility 	minSpeed 	0
scalar RSUExampleScenario.node[21].veinsmobility 	maxSpeed 	13.999813352569
scalar RSUExampleScenario.node[21].veinsmobility 	totalDistance 	2408.9043687278
scalar RSUExampleScenario.node[21].veinsmobility 	totalCO2Emission 	696.59063382241
scalar RSUExampleScenario.node[22].appl 	meanClusterNodes 	4.6666666666667
scalar RSUExampleScenario.node[22].appl 	meanClusterHeadUtility 	5.9715646366619
scalar RSUExampleScenario.node[22].appl 	NumberofCH 	0.16216216216216
scalar RSUExampleScenario.node[22].appl 	NumberofON 	0.75675675675676
scalar RSUExampleScenario.node[22].appl 	NumberofFN 	0.081081081081081
scalar RSUExampleScenario.node[22].veinsmobility 	startTime 	53.1
scalar RSUExampleScenario.node[22].veinsmobility 	totalTime 	396.9
scalar RSUExampleScenario.node[22].veinsmobility 	stopTime 	450
scalar RSUExampleScenario.node[22].veinsmobility 	minSpeed 	0
scalar RSUExampleScenario.node[22].veinsmobility 	maxSpeed 	13.999943875168
scalar RSUExampleScenario.node[22].veinsmobility 	totalDistance 	2368.2215990935
scalar RSUExampleScenario.node[22].veinsmobility 	totalCO2Emission 	690.2504478663
scalar RSUExampleScenario.node[23].appl 	meanClusterNodes 	1.25
scalar RSUExampleScenario.node[23].appl 	meanClusterHeadUtility 	9.034133239989
scalar RSUExampleScenario.node[23].appl 	NumberofCH 	0.10810810810811
scalar RSUExampleScenario.node[23].appl 	NumberofON 	0.75675675675676
scalar RSUExampleScenario.node[23].appl 	NumberofFN 	0.13513513513514
scalar RSUExampleScenario.node[23].veinsmobility 	startTime 	55.5
scalar RSUExampleScenario.node[23].veinsmobility 	totalTime 	394.5
scalar RSUExampleScenario.node[23].veinsmobility 	stopTime 	450
scalar RSUExampleScenario.node[23].veinsmobility 	minSpeed 	0
scalar RSUExampleScenario.node[23].veinsmobility 	maxSpeed 	13.999990351838
scalar RSUExampleScenario.node[23].veinsmobility 	totalDistance 	2339.5193330724
scalar RSUExampleScenario.node[23].veinsmobility 	totalCO2Emission 	681.62614904024
scalar RSUExampleScenario.node[24].appl 	meanClusterNodes 	4.75
scalar RSUExampleScenario.node[24].appl 	meanClusterHeadUtility 	9.1152624649631
scalar RSUExampleScenario.node[24].appl 	NumberofCH 	0.10810810810811
scalar RSUExampleScenario.node[24].appl 	NumberofON 	0.67567567567568
scalar RSUExampleScenario.node[24].appl 	NumberofFN 	0.21621621621622
scalar RSUExampleScenario.node[24].veinsmobility 	startTime 	57.9
scalar RSUExampleScenario.node[24].veinsmobility 	totalTime 	392.1
scalar RSUExampleScenario.node[24].veinsmobility 	stopTime 	450
scalar RSUExampleScenario.node[24].veinsmobility 	minSpeed 	0
scalar RSUExampleScenario.node[24].veinsmobility 	maxSpeed 	13.999885981444
scalar RSUExampleScenario.node[24].veinsmobility 	totalDistance 	2300.8887894041
scalar RSUExampleScenario.node[24].veinsmobility 	totalCO2Emission 	678.812004377
scalar RSUExampleScenario.node[25].appl 	meanClusterNodes 	1.3333333333333
scalar RSUExampleScenario.node[25].appl 	meanClusterHeadUtility 	5.2025462523754
scalar RSUExampleScenario.node[25].appl 	NumberofCH 	0.16216216216216
scalar RSUExampleScenario.node[25].appl 	NumberofON 	0.72972972972973
scalar RSUExampleScenario.node[25].appl 	NumberofFN 	0.10810810810811
scalar RSUExampleScenario.node[25].veinsmobility 	startTime 	60.3
scalar RSUExampleScenario.node[25].veinsmobility 	totalTime 	389.7
scalar RSUExampleScenario.node[25].veinsmobility 	stopTime 	450
scalar RSUExampleScenario.node[25].veinsmobility 	minSpeed 	0
scalar RSUExampleScenario.node[25].veinsmobility 	maxSpeed 	13.999813460445
scalar RSUExampleScenario.node[25].veinsmobility 	totalDistance 	2272.5218984541
scalar RSUExampleScenario.node[25].veinsmobility 	totalCO2Emission 	672.30806184584
scalar RSUExampleScenario.node[26].appl 	meanClusterNodes 	7.3333333333333
scalar RSUExampleScenario.node[26].appl 	meanClusterHeadUtility 	5.6156526007651
scalar RSUExampleScenario.node[26].appl 	NumberofCH 	0.16216216216216
scalar RSUExampleScenario.node[26].appl 	NumberofON 	0.32432432432432
scalar RSUExampleScenario.node[26].appl 	NumberofFN 	0.51351351351351
scalar RSUExampleScenario.node[26].veinsmobility 	startTime 	62.7
scalar RSUExampleScenario.node[26].veinsmobility 	totalTime 	387.3
scalar RSUExampleScenario.node[26].veinsmobility 	stopTime 	450
scalar RSUExampleScenario.node[26].veinsmobility 	minSpeed 	0
scalar RSUExampleScenario.node[26].veinsmobility 	maxSpeed 	13.999921326125
scalar RSUExampleScenario.node[26].veinsmobility 	totalDistance 	2233.8546987722
scalar RSUExampleScenario.node[26].veinsmobility 	totalCO2Emission 	661.4556378889
scalar RSUExampleScenario.node[27].appl 	meanClusterNodes 	7.5
scalar RSUExampleScenario.node[27].appl 	meanClusterHeadUtility 	8.3302786204329
scalar RSUExampleScenario.node[27].appl 	NumberofCH 	0.10810810810811
scalar RSUExampleScenario.node[27].appl 	NumberofON 	0.40540540540541
scalar RSUExampleScenario.node[27].appl 	NumberofFN 	0.48648648648649
scalar RSUExampleScenario.node[27].veinsmobility 	startTime 	65.1
scalar RSUExampleScenario.node[27].veinsmobility 	totalTime 	384.9
scalar RSUExampleScenario.node[27].veinsmobility 	stopTime 	450
scalar RSUExampleScenario.node[27].veinsmobility 	minSpeed 	0
scalar RSUExampleScenario.node[27].veinsmobility 	maxSpeed 	13.999834497541
scalar RSUExampleScenario.node[27].veinsmobility 	totalDistance 	2204.2154233082
scalar RSUExampleScenario.node[27].veinsmobility 	totalCO2Emission 	663.91127537308
scalar RSUExampleScenario.node[28].appl 	meanClusterNodes 	7.6666666666667
scalar RSUExampleScenario.node[28].appl 	meanClusterHeadUtility 	5.8310945482921
scalar RSUExampleScenario.node[28].appl 	NumberofCH 	0.16216216216216
scalar RSUExampleScenario.node[28].appl 	NumberofON 	0.75675675675676
scalar RSUExampleScenario.node[28].appl 	NumberofFN 	0.081081081081081
scalar RSUExampleScenario.node[28].veinsmobility 	startTime 	67.5
scalar RSUExampleScenario.node[28].veinsmobility 	totalTime 	382.5
scalar RSUExampleScenario.node[28].veinsmobility 	stopTime 	450
scalar RSUExampleScenario.node[28].veinsmobility 	minSpeed 	0
scalar RSUExampleScenario.node[28].veinsmobility 	maxSpeed 	13.999861025673
scalar RSUExampleScenario.node[28].veinsmobility 	totalDistance 	2165.975054512
scalar RSUExampleScenario.node[28].veinsmobility 	totalCO2Emission 	653.75511059683
scalar RSUExampleScenario.node[29].appl 	meanClusterNodes 	4
scalar RSUExampleScenario.node[29].appl 	meanClusterHeadUtility 	7.8520934136848
scalar RSUExampleScenario.node[29].appl 	NumberofCH 	0.10810810810811
scalar RSUExampleScenario.node[29].appl 	NumberofON 	0.81081081081081
scalar RSUExampleScenario.node[29].appl 	NumberofFN 	0.081081081081081
scalar RSUExampleScenario.node[29].veinsmobility 	startTime 	69.9
scalar RSUExampleScenario.node[29].veinsmobility 	totalTime 	380.1
scalar RSUExampleScenario.node[29].veinsmobility 	stopTime 	450
scalar RSUExampleScenario.node[29].veinsmobility 	minSpeed 	0
scalar RSUExampleScenario.node[29].veinsmobility 	maxSpeed 	13.999675745084
scalar RSUExampleScenario.node[29].veinsmobility 	totalDistance 	2132.3568710988
scalar RSUExampleScenario.node[29].veinsmobility 	totalCO2Emission 	651.18717484148
scalar RSUExampleScenario.node[3].appl 	meanClusterNodes 	9.75
scalar RSUExampleScenario.node[3].appl 	meanClusterHeadUtility 	8.8254641577029
scalar RSUExampleScenario.node[3].appl 	NumberofCH 	0.10810810810811
scalar RSUExampleScenario.node[3].appl 	NumberofON 	0.35135135135135
scalar RSUExampleScenario.node[3].appl 	NumberofFN 	0.54054054054054
scalar RSUExampleScenario.node[3].veinsmobility 	startTime 	7.3
scalar RSUExampleScenario.node[3].veinsmobility 	totalTime 	442.7
scalar RSUExampleScenario.node[3].veinsmobility 	stopTime 	450
scalar RSUExampleScenario.node[3].veinsmobility 	minSpeed 	0
scalar RSUExampleScenario.node[3].veinsmobility 	maxSpeed 	13.999951185158
scalar RSUExampleScenario.node[3].veinsmobility 	totalDistance 	2997.6534977681
scalar RSUExampleScenario.node[3].veinsmobility 	totalCO2Emission 	808.53444224467
scalar RSUExampleScenario.node[30].appl 	meanClusterNodes 	3.8
scalar RSUExampleScenario.node[30].appl 	meanClusterHeadUtility 	7.1542686544228
scalar RSUExampleScenario.node[30].appl 	NumberofCH 	0.13513513513514
scalar RSUExampleScenario.node[30].appl 	NumberofON 	0.67567567567568
scalar RSUExampleScenario.node[30].appl 	NumberofFN 	0.18918918918919
scalar RSUExampleScenario.node[30].veinsmobility 	startTime 	72.4
scalar RSUExampleScenario.node[30].veinsmobility 	totalTime 	377.6
scalar RSUExampleScenario.node[30].veinsmobility 	stopTime 	450
scalar RSUExampleScenario.node[30].veinsmobility 	minSpeed 	0
scalar RSUExampleScenario.node[30].veinsmobility 	maxSpeed 	13.999955941651
scalar RSUExampleScenario.node[30].veinsmobility 	totalDistance 	2098.0471513258
scalar RSUExampleScenario.node[30].veinsmobility 	totalCO2Emission 	646.61295580473
scalar RSUExampleScenario.node[31].appl 	meanClusterNodes 	6.75
scalar RSUExampleScenario.node[31].appl 	meanClusterHeadUtility 	8.2100339895774
scalar RSUExampleScenario.node[31].appl 	NumberofCH 	0.10810810810811
scalar RSUExampleScenario.node[31].appl 	NumberofON 	0.51351351351351
scalar RSUExampleScenario.node[31].appl 	NumberofFN 	0.37837837837838
scalar RSUExampleScenario.node[31].veinsmobility 	startTime 	74.8
scalar RSUExampleScenario.node[31].veinsmobility 	totalTime 	375.2
scalar RSUExampleScenario.node[31].veinsmobility 	stopTime 	450
scalar RSUExampleScenario.node[31].veinsmobility 	minSpeed 	0
scalar RSUExampleScenario.node[31].veinsmobility 	maxSpeed 	13.999925986214
scalar RSUExampleScenario.node[31].veinsmobility 	totalDistance 	2067.3877355172
scalar RSUExampleScenario.node[31].veinsmobility 	totalCO2Emission 	639.26933244031
scalar RSUExampleScenario.node[32].appl 	meanClusterNodes 	6.5
scalar RSUExampleScenario.node[32].appl 	meanClusterHeadUtility 	8.775445430804
scalar RSUExampleScenario.node[32].appl 	NumberofCH 	0.10810810810811
scalar RSUExampleScenario.node[32].appl 	NumberofON 	0.59459459459459
scalar RSUExampleScenario.node[32].appl 	NumberofFN 	0.2972972972973
scalar RSUExampleScenario.node[32].veinsmobility 	startTime 	77.2
scalar RSUExampleScenario.node[32].veinsmobility 	totalTime 	372.8
scalar RSUExampleScenario.node[32].veinsmobility 	stopTime 	450
scalar RSUExampleScenario.node[32].veinsmobility 	minSpeed 	0
scalar RSUExampleScenario.node[32].veinsmobility 	maxSpeed 	13.999992626084
scalar RSUExampleScenario.node[32].veinsmobility 	totalDistance 	2031.5848938528
scalar RSUExampleScenario.node[32].veinsmobility 	totalCO2Emission 	629.80486558672
scalar RSUExampleScenario.node[33].appl 	meanClusterNodes 	3.6666666666667
scalar RSUExampleScenario.node[33].appl 	meanClusterHeadUtility 	5.2136484065186
scalar RSUExampleScenario.node[33].appl 	NumberofCH 	0.16216216216216
scalar RSUExampleScenario.node[33].appl 	NumberofON 	0.78378378378378
scalar RSUExampleScenario.node[33].appl 	NumberofFN 	0.054054054054054
scalar RSUExampleScenario.node[33].veinsmobility 	startTime 	79.6
scalar RSUExampleScenario.node[33].veinsmobility 	totalTime 	370.4
scalar RSUExampleScenario.node[33].veinsmobility 	stopTime 	450
scalar RSUExampleScenario.node[33].veinsmobility 	minSpeed 	0
scalar RSUExampleScenario.node[33].veinsmobility 	maxSpeed 	13.999956196356
scalar RSUExampleScenario.node[33].veinsmobility 	totalDistance 	1999.7130694592
scalar RSUExampleScenario.node[33].veinsmobility 	totalCO2Emission 	627.93278031343
scalar RSUExampleScenario.node[34].appl 	meanClusterNodes 	5.6
scalar RSUExampleScenario.node[34].appl 	meanClusterHeadUtility 	6.3060260052593
scalar RSUExampleScenario.node[34].appl 	NumberofCH 	0.13513513513514
scalar RSUExampleScenario.node[34].appl 	NumberofON 	0.62162162162162
scalar RSUExampleScenario.node[34].appl 	NumberofFN 	0.24324324324324
scalar RSUExampleScenario.node[34].veinsmobility 	startTime 	82
scalar RSUExampleScenario.node[34].veinsmobility 	totalTime 	368
scalar RSUExampleScenario.node[34].veinsmobility 	stopTime 	450
scalar RSUExampleScenario.node[34].veinsmobility 	minSpeed 	0
scalar RSUExampleScenario.node[34].veinsmobility 	maxSpeed 	13.999550368618
scalar RSUExampleScenario.node[34].veinsmobility 	totalDistance 	1965.8286171123
scalar RSUExampleScenario.node[34].veinsmobility 	totalCO2Emission 	621.32634641881
scalar RSUExampleScenario.node[35].appl 	meanClusterNodes 	6
scalar RSUExampleScenario.node[35].appl 	meanClusterHeadUtility 	7.9995434463478
scalar RSUExampleScenario.node[35].appl 	NumberofCH 	0.10810810810811
scalar RSUExampleScenario.node[35].appl 	NumberofON 	0.75675675675676
scalar RSUExampleScenario.node[35].appl 	NumberofFN 	0.13513513513514
scalar RSUExampleScenario.node[35].veinsmobility 	startTime 	84.4
scalar RSUExampleScenario.node[35].veinsmobility 	totalTime 	365.6
scalar RSUExampleScenario.node[35].veinsmobility 	stopTime 	450
scalar RSUExampleScenario.node[35].veinsmobility 	minSpeed 	0
scalar RSUExampleScenario.node[35].veinsmobility 	maxSpeed 	13.999994608031
scalar RSUExampleScenario.node[35].veinsmobility 	totalDistance 	1929.9259824354
scalar RSUExampleScenario.node[35].veinsmobility 	totalCO2Emission 	615.83243814472
scalar RSUExampleScenario.node[36].appl 	meanClusterNodes 	5.8333333333333
scalar RSUExampleScenario.node[36].appl 	meanClusterHeadUtility 	5.774590850261
scalar RSUExampleScenario.node[36].appl 	NumberofCH 	0.16216216216216
scalar RSUExampleScenario.node[36].appl 	NumberofON 	0.67567567567568
scalar RSUExampleScenario.node[36].appl 	NumberofFN 	0.16216216216216
scalar RSUExampleScenario.node[36].veinsmobility 	startTime 	86.8
scalar RSUExampleScenario.node[36].veinsmobility 	totalTime 	363.2
scalar RSUExampleScenario.node[36].veinsmobility 	stopTime 	450
scalar RSUExampleScenario.node[36].veinsmobility 	minSpeed 	0
scalar RSUExampleScenario.node[36].veinsmobility 	maxSpeed 	13.999570323937
scalar RSUExampleScenario.node[36].veinsmobility 	totalDistance 	1895.4204547076
scalar RSUExampleScenario.node[36].veinsmobility 	totalCO2Emission 	609.08802943134
scalar RSUExampleScenario.node[37].appl 	meanClusterNodes 	2.25
scalar RSUExampleScenario.node[37].appl 	meanClusterHeadUtility 	7.7991650102665
scalar RSUExampleScenario.node[37].appl 	NumberofCH 	0.10810810810811
scalar RSUExampleScenario.node[37].appl 	NumberofON 	0.83783783783784
scalar RSUExampleScenario.node[37].appl 	NumberofFN 	0.054054054054054
scalar RSUExampleScenario.node[37].veinsmobility 	startTime 	89.2
scalar RSUExampleScenario.node[37].veinsmobility 	totalTime 	360.8
scalar RSUExampleScenario.node[37].veinsmobility 	stopTime 	450
scalar RSUExampleScenario.node[37].veinsmobility 	minSpeed 	0
scalar RSUExampleScenario.node[37].veinsmobility 	maxSpeed 	13.999979831474
scalar RSUExampleScenario.node[37].veinsmobility 	totalDistance 	1863.2784197224
scalar RSUExampleScenario.node[37].veinsmobility 	totalCO2Emission 	603.60262792014
scalar RSUExampleScenario.node[38].appl 	meanClusterNodes 	1.6
scalar RSUExampleScenario.node[38].appl 	meanClusterHeadUtility 	6.8143076459369
scalar RSUExampleScenario.node[38].appl 	NumberofCH 	0.13513513513514
scalar RSUExampleScenario.node[38].appl 	NumberofON 	0.48648648648649
scalar RSUExampleScenario.node[38].appl 	NumberofFN 	0.37837837837838
scalar RSUExampleScenario.node[38].veinsmobility 	startTime 	91.6
scalar RSUExampleScenario.node[38].veinsmobility 	totalTime 	358.4
scalar RSUExampleScenario.node[38].veinsmobility 	stopTime 	450
scalar RSUExampleScenario.node[38].veinsmobility 	minSpeed 	0
scalar RSUExampleScenario.node[38].veinsmobility 	maxSpeed 	13.999865005489
scalar RSUExampleScenario.node[38].veinsmobility 	totalDistance 	1828.8929348075
scalar RSUExampleScenario.node[38].veinsmobility 	totalCO2Emission 	598.29666638867
scalar RSUExampleScenario.node[39].appl 	meanClusterNodes 	5.5
scalar RSUExampleScenario.node[39].appl 	meanClusterHeadUtility 	8.4489127991411
scalar RSUExampleScenario.node[39].appl 	NumberofCH 	0.10810810810811
scalar RSUExampleScenario.node[39].appl 	NumberofON 	0.75675675675676
scalar RSUExampleScenario.node[39].appl 	NumberofFN 	0.13513513513514
scalar RSUExampleScenario.node[39].veinsmobility 	startTime 	94
scalar RSUExampleScenario.node[39].veinsmobility 	totalTime 	356
scalar RSUExampleScenario.node[39].veinsmobility 	stopTime 	450
scalar RSUExampleScenario.node[39].veinsmobility 	minSpeed 	0
scalar RSUExampleScenario.node[39].veinsmobility 	maxSpeed 	13.999801494149
scalar RSUExampleScenario.node[39].veinsmobility 	totalDistance 	1795.7954189174
scalar RSUExampleScenario.node[39].veinsmobility 	totalCO2Emission 	591.90814260988
scalar RSUExampleScenario.node[4].appl 	meanClusterNodes 	3.3333333333333
scalar RSUExampleScenario.node[4].appl 	meanClusterHeadUtility 	6.019647960253
scalar RSUExampleScenario.node[4].appl 	NumberofCH 	0.16216216216216
scalar RSUExampleScenario.node[4].appl 	NumberofON 	0.56756756756757
scalar RSUExampleScenario.node[4].appl 	NumberofFN 	0.27027027027027
scalar RSUExampleScenario.node[4].veinsmobility 	startTime 	9.7
scalar RSUExampleScenario.node[4].veinsmobility 	totalTime 	440.3
scalar RSUExampleScenario.node[4].veinsmobility 	stopTime 	450
scalar RSUExampleScenario.node[4].veinsmobility 	minSpeed 	0
scalar RSUExampleScenario.node[4].veinsmobility 	maxSpeed 	13.999984171237
scalar RSUExampleScenario.node[4].veinsmobility 	totalDistance 	2947.3891215146
scalar RSUExampleScenario.node[4].veinsmobility 	totalCO2Emission 	800.15124115215
scalar RSUExampleScenario.node[40].appl 	meanClusterNodes 	4
scalar RSUExampleScenario.node[40].appl 	meanClusterHeadUtility 	5.7862562444464
scalar RSUExampleScenario.node[40].appl 	NumberofCH 	0.16216216216216
scalar RSUExampleScenario.node[40].appl 	NumberofON 	0.56756756756757
scalar RSUExampleScenario.node[40].appl 	NumberofFN 	0.27027027027027
scalar RSUExampleScenario.node[40].veinsmobility 	startTime 	96.5
scalar RSUExampleScenario.node[40].veinsmobility 	totalTime 	353.5
scalar RSUExampleScenario.node[40].veinsmobility 	stopTime 	450
scalar RSUExampleScenario.node[40].veinsmobility 	minSpeed 	0
scalar RSUExampleScenario.node[40].veinsmobility 	maxSpeed 	13.999464665065
scalar RSUExampleScenario.node[40].veinsmobility 	totalDistance 	1762.0333502345
scalar RSUExampleScenario.node[40].veinsmobility 	totalCO2Emission 	586.55312819134
scalar RSUExampleScenario.node[41].appl 	meanClusterNodes 	3
scalar RSUExampleScenario.node[41].appl 	meanClusterHeadUtility 	8.2261669459995
scalar RSUExampleScenario.node[41].appl 	NumberofCH 	0.10810810810811
scalar RSUExampleScenario.node[41].appl 	NumberofON 	0.83783783783784
scalar RSUExampleScenario.node[41].appl 	NumberofFN 	0.054054054054054
scalar RSUExampleScenario.node[41].veinsmobility 	startTime 	98.9
scalar RSUExampleScenario.node[41].veinsmobility 	totalTime 	351.1
scalar RSUExampleScenario.node[41].veinsmobility 	stopTime 	450
scalar RSUExampleScenario.node[41].veinsmobility 	minSpeed 	0
scalar RSUExampleScenario.node[41].veinsmobility 	maxSpeed 	13.999899398605
scalar RSUExampleScenario.node[41].veinsmobility 	totalDistance 	1728.7317831123
scalar RSUExampleScenario.node[41].veinsmobility 	totalCO2Emission 	581.6707704894
scalar RSUExampleScenario.node[42].appl 	meanClusterNodes 	8.25
scalar RSUExampleScenario.node[42].appl 	meanClusterHeadUtility 	8.947497273771
scalar RSUExampleScenario.node[42].appl 	NumberofCH 	0.10810810810811
scalar RSUExampleScenario.node[42].appl 	NumberofON 	0.59459459459459
scalar RSUExampleScenario.node[42].appl 	NumberofFN 	0.2972972972973
scalar RSUExampleScenario.node[42].veinsmobility 	startTime 	101.3
scalar RSUExampleScenario.node[42].veinsmobility 	totalTime 	348.7
scalar RSUExampleScenario.node[42].veinsmobility 	stopTime 	450
scalar RSUExampleScenario.node[42].veinsmobility 	minSpeed 	0
scalar RSUExampleScenario.node[42].veinsmobility 	maxSpeed 	13.999792952493
scalar RSUExampleScenario.node[42].veinsmobility 	totalDistance 	1695.097538866
scalar RSUExampleScenario.node[42].veinsmobility 	totalCO2Emission 	572.87448344783
scalar RSUExampleScenario.node[43].appl 	meanClusterNodes 	6.8333333333333
scalar RSUExampleScenario.node[43].appl 	meanClusterHeadUtility 	5.6224591775874
scalar RSUExampleScenario.node[43].appl 	NumberofCH 	0.16216216216216
scalar RSUExampleScenario.node[43].appl 	NumberofON 	0.67567567567568
scalar RSUExampleScenario.node[43].appl 	NumberofFN 	0.16216216216216
scalar RSUExampleScenario.node[43].veinsmobility 	startTime 	103.7
scalar RSUExampleScenario.node[43].veinsmobility 	totalTime 	346.3
scalar RSUExampleScenario.node[43].veinsmobility 	stopTime 	450
scalar RSUExampleScenario.node[43].veinsmobility 	minSpeed 	0
scalar RSUExampleScenario.node[43].veinsmobility 	maxSpeed 	13.999933575245
scalar RSUExampleScenario.node[43].veinsmobility 	totalDistance 	1659.9498645131
scalar RSUExampleScenario.node[43].veinsmobility 	totalCO2Emission 	570.2691344565
scalar RSUExampleScenario.node[44].appl 	meanClusterNodes 	2.25
scalar RSUExampleScenario.node[44].appl 	meanClusterHeadUtility 	8.428791061882
scalar RSUExampleScenario.node[44].appl 	NumberofCH 	0.10810810810811
scalar RSUExampleScenario.node[44].appl 	NumberofON 	0.78378378378378
scalar RSUExampleScenario.node[44].appl 	NumberofFN 	0.10810810810811
scalar RSUExampleScenario.node[44].veinsmobility 	startTime 	106.1
scalar RSUExampleScenario.node[44].veinsmobility 	totalTime 	343.9
scalar RSUExampleScenario.node[44].veinsmobility 	stopTime 	450
scalar RSUExampleScenario.node[44].veinsmobility 	minSpeed 	0
scalar RSUExampleScenario.node[44].veinsmobility 	maxSpeed 	13.999863787566
scalar RSUExampleScenario.node[44].veinsmobility 	totalDistance 	1627.0024210117
scalar RSUExampleScenario.node[44].veinsmobility 	totalCO2Emission 	564.12864763473
scalar RSUExampleScenario.node[45].appl 	meanClusterNodes 	4.5
scalar RSUExampleScenario.node[45].appl 	meanClusterHeadUtility 	5.9350575106945
scalar RSUExampleScenario.node[45].appl 	NumberofCH 	0.16216216216216
scalar RSUExampleScenario.node[45].appl 	NumberofON 	0.75675675675676
scalar RSUExampleScenario.node[45].appl 	NumberofFN 	0.081081081081081
scalar RSUExampleScenario.node[45].veinsmobility 	startTime 	108.5
scalar RSUExampleScenario.node[45].veinsmobility 	totalTime 	341.5
scalar RSUExampleScenario.node[45].veinsmobility 	stopTime 	450
scalar RSUExampleScenario.node[45].veinsmobility 	minSpeed 	0
scalar RSUExampleScenario.node[45].veinsmobility 	maxSpeed 	13.999969517477
scalar RSUExampleScenario.node[45].veinsmobility 	totalDistance 	1593.5880798519
scalar RSUExampleScenario.node[45].veinsmobility 	totalCO2Emission 	556.95824291253
scalar RSUExampleScenario.node[46].appl 	meanClusterNodes 	4.8333333333333
scalar RSUExampleScenario.node[46].appl 	meanClusterHeadUtility 	5.8275856161913
scalar RSUExampleScenario.node[46].appl 	NumberofCH 	0.16216216216216
scalar RSUExampleScenario.node[46].appl 	NumberofON 	0.75675675675676
scalar RSUExampleScenario.node[46].appl 	NumberofFN 	0.081081081081081
scalar RSUExampleScenario.node[46].veinsmobility 	startTime 	110.9
scalar RSUExampleScenario.node[46].veinsmobility 	totalTime 	339.1
scalar RSUExampleScenario.node[46].veinsmobility 	stopTime 	450
scalar RSUExampleScenario.node[46].veinsmobility 	minSpeed 	0
scalar RSUExampleScenario.node[46].veinsmobility 	maxSpeed 	13.999703525645
scalar RSUExampleScenario.node[46].veinsmobility 	totalDistance 	1560.5767849201
scalar RSUExampleScenario.node[46].veinsmobility 	totalCO2Emission 	554.43333638444
scalar RSUExampleScenario.node[47].appl 	meanClusterNodes 	2.1666666666667
scalar RSUExampleScenario.node[47].appl 	meanClusterHeadUtility 	5.9714315595884
scalar RSUExampleScenario.node[47].appl 	NumberofCH 	0.16216216216216
scalar RSUExampleScenario.node[47].appl 	NumberofON 	0.72972972972973
scalar RSUExampleScenario.node[47].appl 	NumberofFN 	0.10810810810811
scalar RSUExampleScenario.node[47].veinsmobility 	startTime 	113.3
scalar RSUExampleScenario.node[47].veinsmobility 	totalTime 	336.7
scalar RSUExampleScenario.node[47].veinsmobility 	stopTime 	450
scalar RSUExampleScenario.node[47].veinsmobility 	minSpeed 	0
scalar RSUExampleScenario.node[47].veinsmobility 	maxSpeed 	13.999879777688
scalar RSUExampleScenario.node[47].veinsmobility 	totalDistance 	1526.6986261313
scalar RSUExampleScenario.node[47].veinsmobility 	totalCO2Emission 	545.92181473225
scalar RSUExampleScenario.node[48].appl 	meanClusterNodes 	1.5
scalar RSUExampleScenario.node[48].appl 	meanClusterHeadUtility 	7.737690598284
scalar RSUExampleScenario.node[48].appl 	NumberofCH 	0.10810810810811
scalar RSUExampleScenario.node[48].appl 	NumberofON 	0.75675675675676
scalar RSUExampleScenario.node[48].appl 	NumberofFN 	0.13513513513514
scalar RSUExampleScenario.node[48].veinsmobility 	startTime 	115.7
scalar RSUExampleScenario.node[48].veinsmobility 	totalTime 	334.3
scalar RSUExampleScenario.node[48].veinsmobility 	stopTime 	450
scalar RSUExampleScenario.node[48].veinsmobility 	minSpeed 	0
scalar RSUExampleScenario.node[48].veinsmobility 	maxSpeed 	13.999858444449
scalar RSUExampleScenario.node[48].veinsmobility 	totalDistance 	1493.1683273087
scalar RSUExampleScenario.node[48].veinsmobility 	totalCO2Emission 	544.13742456534
scalar RSUExampleScenario.node[49].appl 	meanClusterNodes 	6
scalar RSUExampleScenario.node[49].appl 	meanClusterHeadUtility 	8.5273865490714
scalar RSUExampleScenario.node[49].appl 	NumberofCH 	0.10810810810811
scalar RSUExampleScenario.node[49].appl 	NumberofON 	0.54054054054054
scalar RSUExampleScenario.node[49].appl 	NumberofFN 	0.35135135135135
scalar RSUExampleScenario.node[49].veinsmobility 	startTime 	118.1
scalar RSUExampleScenario.node[49].veinsmobility 	totalTime 	331.9
scalar RSUExampleScenario.node[49].veinsmobility 	stopTime 	450
scalar RSUExampleScenario.node[49].veinsmobility 	minSpeed 	0
scalar RSUExampleScenario.node[49].veinsmobility 	maxSpeed 	13.999936572774
scalar RSUExampleScenario.node[49].veinsmobility 	totalDistance 	1459.3272791829
scalar RSUExampleScenario.node[49].veinsmobility 	totalCO2Emission 	534.56727722396
scalar RSUExampleScenario.node[5].appl 	meanClusterNodes 	2.4
scalar RSUExampleScenario.node[5].appl 	meanClusterHeadUtility 	8.0791461823903
scalar RSUExampleScenario.node[5].appl 	NumberofCH 	0.13513513513514
scalar RSUExampleScenario.node[5].appl 	NumberofON 	0.59459459459459
scalar RSUExampleScenario.node[5].appl 	NumberofFN 	0.27027027027027
scalar RSUExampleScenario.node[5].veinsmobility 	startTime 	12.1
scalar RSUExampleScenario.node[5].veinsmobility 	totalTime 	437.9
scalar RSUExampleScenario.node[5].veinsmobility 	stopTime 	450
scalar RSUExampleScenario.node[5].veinsmobility 	minSpeed 	0
scalar RSUExampleScenario.node[5].veinsmobility 	maxSpeed 	13.999941398338
scalar RSUExampleScenario.node[5].veinsmobility 	totalDistance 	2917.9128046154
scalar RSUExampleScenario.node[5].veinsmobility 	totalCO2Emission 	782.39242478316
scalar RSUExampleScenario.node[50].appl 	meanClusterNodes 	4.3333333333333
scalar RSUExampleScenario.node[50].appl 	meanClusterHeadUtility 	5.7406920911406
scalar RSUExampleScenario.node[50].appl 	NumberofCH 	0.16216216216216
scalar RSUExampleScenario.node[50].appl 	NumberofON 	0.43243243243243
scalar RSUExampleScenario.node[50].appl 	NumberofFN 	0.40540540540541
scalar RSUExampleScenario.node[50].veinsmobility 	startTime 	120.6
scalar RSUExampleScenario.node[50].veinsmobility 	totalTime 	329.4
scalar RSUExampleScenario.node[50].veinsmobility 	stopTime 	450
scalar RSUExampleScenario.node[50].veinsmobility 	minSpeed 	0
scalar RSUExampleScenario.node[50].veinsmobility 	maxSpeed 	13.999909737513
scalar RSUExampleScenario.node[50].veinsmobility 	totalDistance 	1426.3524193075
scalar RSUExampleScenario.node[50].veinsmobility 	totalCO2Emission 	531.38976003658
scalar RSUExampleScenario.node[51].appl 	meanClusterNodes 	7.5
scalar RSUExampleScenario.node[51].appl 	meanClusterHeadUtility 	5.6036173059258
scalar RSUExampleScenario.node[51].appl 	NumberofCH 	0.16216216216216
scalar RSUExampleScenario.node[51].appl 	NumberofON 	0.59459459459459
scalar RSUExampleScenario.node[51].appl 	NumberofFN 	0.24324324324324
scalar RSUExampleScenario.node[51].veinsmobility 	startTime 	123
scalar RSUExampleScenario.node[51].veinsmobility 	totalTime 	327
scalar RSUExampleScenario.node[51].veinsmobility 	stopTime 	450
scalar RSUExampleScenario.node[51].veinsmobility 	minSpeed 	0
scalar RSUExampleScenario.node[51].veinsmobility 	maxSpeed 	13.999795037957
scalar RSUExampleScenario.node[51].veinsmobility 	totalDistance 	1393.0089400751
scalar RSUExampleScenario.node[51].veinsmobility 	totalCO2Emission 	528.55442594745
scalar RSUExampleScenario.node[52].appl 	meanClusterNodes 	8.75
scalar RSUExampleScenario.node[52].appl 	meanClusterHeadUtility 	8.1526708746067
scalar RSUExampleScenario.node[52].appl 	NumberofCH 	0.10810810810811
scalar RSUExampleScenario.node[52].appl 	NumberofON 	0.7027027027027
scalar RSUExampleScenario.node[52].appl 	NumberofFN 	0.18918918918919
scalar RSUExampleScenario.node[52].veinsmobility 	startTime 	125.4
scalar RSUExampleScenario.node[52].veinsmobility 	totalTime 	324.6
scalar RSUExampleScenario.node[52].veinsmobility 	stopTime 	450
scalar RSUExampleScenario.node[52].veinsmobility 	minSpeed 	0
scalar RSUExampleScenario.node[52].veinsmobility 	maxSpeed 	13.999543311093
scalar RSUExampleScenario.node[52].veinsmobility 	totalDistance 	1361.1379702203
scalar RSUExampleScenario.node[52].veinsmobility 	totalCO2Emission 	518.61892951784
scalar RSUExampleScenario.node[53].appl 	meanClusterNodes 	2.3333333333333
scalar RSUExampleScenario.node[53].appl 	meanClusterHeadUtility 	5.3299807188297
scalar RSUExampleScenario.node[53].appl 	NumberofCH 	0.16216216216216
scalar RSUExampleScenario.node[53].appl 	NumberofON 	0.81081081081081
scalar RSUExampleScenario.node[53].appl 	NumberofFN 	0.027027027027027
scalar RSUExampleScenario.node[53].veinsmobility 	startTime 	127.8
scalar RSUExampleScenario.node[53].veinsmobility 	totalTime 	322.2
scalar RSUExampleScenario.node[53].veinsmobility 	stopTime 	450
scalar RSUExampleScenario.node[53].veinsmobility 	minSpeed 	0
scalar RSUExampleScenario.node[53].veinsmobility 	maxSpeed 	13.999745418048
scalar RSUExampleScenario.node[53].veinsmobility 	totalDistance 	1326.3493330504
scalar RSUExampleScenario.node[53].veinsmobility 	totalCO2Emission 	513.25020365428
scalar RSUExampleScenario.node[54].appl 	meanClusterNodes 	4.5
scalar RSUExampleScenario.node[54].appl 	meanClusterHeadUtility 	8.2123246915512
scalar RSUExampleScenario.node[54].appl 	NumberofCH 	0.10810810810811
scalar RSUExampleScenario.node[54].appl 	NumberofON 	0.43243243243243
scalar RSUExampleScenario.node[54].appl 	NumberofFN 	0.45945945945946
scalar RSUExampleScenario.node[54].veinsmobility 	startTime 	130.2
scalar RSUExampleScenario.node[54].veinsmobility 	totalTime 	319.8
scalar RSUExampleScenario.node[54].veinsmobility 	stopTime 	450
scalar RSUExampleScenario.node[54].veinsmobility 	minSpeed 	0
scalar RSUExampleScenario.node[54].veinsmobility 	maxSpeed 	13.999896168073
scalar RSUExampleScenario.node[54].veinsmobility 	totalDistance 	1293.1660099382
scalar RSUExampleScenario.node[54].veinsmobility 	totalCO2Emission 	506.82763113148
scalar RSUExampleScenario.node[55].appl 	meanClusterNodes 	3.25
scalar RSUExampleScenario.node[55].appl 	meanClusterHeadUtility 	8.5029394305604
scalar RSUExampleScenario.node[55].appl 	NumberofCH 	0.10810810810811
scalar RSUExampleScenario.node[55].appl 	NumberofON 	0.62162162162162
scalar RSUExampleScenario.node[55].appl 	NumberofFN 	0.27027027027027
scalar RSUExampleScenario.node[55].veinsmobility 	startTime 	132.6
scalar RSUExampleScenario.node[55].veinsmobility 	totalTime 	317.4
scalar RSUExampleScenario.node[55].veinsmobility 	stopTime 	450
scalar RSUExampleScenario.node[55].veinsmobility 	minSpeed 	0
scalar RSUExampleScenario.node[55].veinsmobility 	maxSpeed 	13.999933924205
scalar RSUExampleScenario.node[55].veinsmobility 	totalDistance 	1258.6106881655
scalar RSUExampleScenario.node[55].veinsmobility 	totalCO2Emission 	502.23954319841
scalar RSUExampleScenario.node[56].appl 	meanClusterNodes 	0.5
scalar RSUExampleScenario.node[56].appl 	meanClusterHeadUtility 	8.1265905446903
scalar RSUExampleScenario.node[56].appl 	NumberofCH 	0.10810810810811
scalar RSUExampleScenario.node[56].appl 	NumberofON 	0.83783783783784
scalar RSUExampleScenario.node[56].appl 	NumberofFN 	0.054054054054054
scalar RSUExampleScenario.node[56].veinsmobility 	startTime 	135
scalar RSUExampleScenario.node[56].veinsmobility 	totalTime 	315
scalar RSUExampleScenario.node[56].veinsmobility 	stopTime 	450
scalar RSUExampleScenario.node[56].veinsmobility 	minSpeed 	0
scalar RSUExampleScenario.node[56].veinsmobility 	maxSpeed 	13.999678775393
scalar RSUExampleScenario.node[56].veinsmobility 	totalDistance 	1224.2937904129
scalar RSUExampleScenario.node[56].veinsmobility 	totalCO2Emission 	496.49073456907
scalar RSUExampleScenario.node[57].appl 	meanClusterNodes 	6
scalar RSUExampleScenario.node[57].appl 	meanClusterHeadUtility 	8.1429398174375
scalar RSUExampleScenario.node[57].appl 	NumberofCH 	0.10810810810811
scalar RSUExampleScenario.node[57].appl 	NumberofON 	0.78378378378378
scalar RSUExampleScenario.node[57].appl 	NumberofFN 	0.10810810810811
scalar RSUExampleScenario.node[57].veinsmobility 	startTime 	137.4
scalar RSUExampleScenario.node[57].veinsmobility 	totalTime 	312.6
scalar RSUExampleScenario.node[57].veinsmobility 	stopTime 	450
scalar RSUExampleScenario.node[57].veinsmobility 	minSpeed 	0
scalar RSUExampleScenario.node[57].veinsmobility 	maxSpeed 	13.999260643751
scalar RSUExampleScenario.node[57].veinsmobility 	totalDistance 	1190.3895879542
scalar RSUExampleScenario.node[57].veinsmobility 	totalCO2Emission 	491.43186117805
scalar RSUExampleScenario.node[58].appl 	meanClusterNodes 	2.5
scalar RSUExampleScenario.node[58].appl 	meanClusterHeadUtility 	7.7479147937764
scalar RSUExampleScenario.node[58].appl 	NumberofCH 	0.10810810810811
scalar RSUExampleScenario.node[58].appl 	NumberofON 	0.78378378378378
scalar RSUExampleScenario.node[58].appl 	NumberofFN 	0.10810810810811
scalar RSUExampleScenario.node[58].veinsmobility 	startTime 	139.8
scalar RSUExampleScenario.node[58].veinsmobility 	totalTime 	310.2
scalar RSUExampleScenario.node[58].veinsmobility 	stopTime 	450
scalar RSUExampleScenario.node[58].veinsmobility 	minSpeed 	0
scalar RSUExampleScenario.node[58].veinsmobility 	maxSpeed 	13.999956230861
scalar RSUExampleScenario.node[58].veinsmobility 	totalDistance 	1157.8116677468
scalar RSUExampleScenario.node[58].veinsmobility 	totalCO2Emission 	485.63651334432
scalar RSUExampleScenario.node[59].appl 	meanClusterNodes 	8.25
scalar RSUExampleScenario.node[59].appl 	meanClusterHeadUtility 	8.2678027562151
scalar RSUExampleScenario.node[59].appl 	NumberofCH 	0.10810810810811
scalar RSUExampleScenario.node[59].appl 	NumberofON 	0.56756756756757
scalar RSUExampleScenario.node[59].appl 	NumberofFN 	0.32432432432432
scalar RSUExampleScenario.node[59].veinsmobility 	startTime 	142.2
scalar RSUExampleScenario.node[59].veinsmobility 	totalTime 	307.8
scalar RSUExampleScenario.node[59].veinsmobility 	stopTime 	450
scalar RSUExampleScenario.node[59].veinsmobility 	minSpeed 	0
scalar RSUExampleScenario.node[59].veinsmobility 	maxSpeed 	13.999021608524
scalar RSUExampleScenario.node[59].veinsmobility 	totalDistance 	1124.0970647764
scalar RSUExampleScenario.node[59].veinsmobility 	totalCO2Emission 	478.74871806278
scalar RSUExampleScenario.node[6].appl 	meanClusterNodes 	3.5
scalar RSUExampleScenario.node[6].appl 	meanClusterHeadUtility 	8.4136941489004
scalar RSUExampleScenario.node[6].appl 	NumberofCH 	0.10810810810811
scalar RSUExampleScenario.node[6].appl 	NumberofON 	0.56756756756757
scalar RSUExampleScenario.node[6].appl 	NumberofFN 	0.32432432432432
scalar RSUExampleScenario.node[6].veinsmobility 	startTime 	14.5
scalar RSUExampleScenario.node[6].veinsmobility 	totalTime 	435.5
scalar RSUExampleScenario.node[6].veinsmobility 	stopTime 	450
scalar RSUExampleScenario.node[6].veinsmobility 	minSpeed 	0
scalar RSUExampleScenario.node[6].veinsmobility 	maxSpeed 	13.999940968261
scalar RSUExampleScenario.node[6].veinsmobility 	totalDistance 	2901.3222129884
scalar RSUExampleScenario.node[6].veinsmobility 	totalCO2Emission 	776.72211090149
scalar RSUExampleScenario.node[60].appl 	meanClusterNodes 	3.5
scalar RSUExampleScenario.node[60].appl 	meanClusterHeadUtility 	8.908019407341
scalar RSUExampleScenario.node[60].appl 	NumberofCH 	0.10810810810811
scalar RSUExampleScenario.node[60].appl 	NumberofON 	0.56756756756757
scalar RSUExampleScenario.node[60].appl 	NumberofFN 	0.32432432432432
scalar RSUExampleScenario.node[60].veinsmobility 	startTime 	144.7
scalar RSUExampleScenario.node[60].veinsmobility 	totalTime 	305.3
scalar RSUExampleScenario.node[60].veinsmobility 	stopTime 	450
scalar RSUExampleScenario.node[60].veinsmobility 	minSpeed 	0
scalar RSUExampleScenario.node[60].veinsmobility 	maxSpeed 	13.999777662409
scalar RSUExampleScenario.node[60].veinsmobility 	totalDistance 	1090.415019297
scalar RSUExampleScenario.node[60].veinsmobility 	totalCO2Emission 	474.85959953171
scalar RSUExampleScenario.node[61].appl 	meanClusterNodes 	0.83333333333333
scalar RSUExampleScenario.node[61].appl 	meanClusterHeadUtility 	5.5878618492942
scalar RSUExampleScenario.node[61].appl 	NumberofCH 	0.16216216216216
scalar RSUExampleScenario.node[61].appl 	NumberofON 	0.72972972972973
scalar RSUExampleScenario.node[61].appl 	NumberofFN 	0.10810810810811
scalar RSUExampleScenario.node[61].veinsmobility 	startTime 	147.1
scalar RSUExampleScenario.node[61].veinsmobility 	totalTime 	302.9
scalar RSUExampleScenario.node[61].veinsmobility 	stopTime 	450
scalar RSUExampleScenario.node[61].veinsmobility 	minSpeed 	0
scalar RSUExampleScenario.node[61].veinsmobility 	maxSpeed 	13.999963150485
scalar RSUExampleScenario.node[61].veinsmobility 	totalDistance 	1057.0226662721
scalar RSUExampleScenario.node[61].veinsmobility 	totalCO2Emission 	468.16669056255
scalar RSUExampleScenario.node[62].appl 	meanClusterNodes 	6
scalar RSUExampleScenario.node[62].appl 	meanClusterHeadUtility 	8.5002056211058
scalar RSUExampleScenario.node[62].appl 	NumberofCH 	0.10810810810811
scalar RSUExampleScenario.node[62].appl 	NumberofON 	0.72972972972973
scalar RSUExampleScenario.node[62].appl 	NumberofFN 	0.16216216216216
scalar RSUExampleScenario.node[62].veinsmobility 	startTime 	149.5
scalar RSUExampleScenario.node[62].veinsmobility 	totalTime 	300.5
scalar RSUExampleScenario.node[62].veinsmobility 	stopTime 	450
scalar RSUExampleScenario.node[62].veinsmobility 	minSpeed 	0
scalar RSUExampleScenario.node[62].veinsmobility 	maxSpeed 	13.999540243282
scalar RSUExampleScenario.node[62].veinsmobility 	totalDistance 	1024.5371436861
scalar RSUExampleScenario.node[62].veinsmobility 	totalCO2Emission 	463.47506270793
scalar RSUExampleScenario.node[63].appl 	meanClusterNodes 	4.75
scalar RSUExampleScenario.node[63].appl 	meanClusterHeadUtility 	9.4030375445107
scalar RSUExampleScenario.node[63].appl 	NumberofCH 	0.10810810810811
scalar RSUExampleScenario.node[63].appl 	NumberofON 	0.62162162162162
scalar RSUExampleScenario.node[63].appl 	NumberofFN 	0.27027027027027
scalar RSUExampleScenario.node[63].veinsmobility 	startTime 	151.9
scalar RSUExampleScenario.node[63].veinsmobility 	totalTime 	298.1
scalar RSUExampleScenario.node[63].veinsmobility 	stopTime 	450
scalar RSUExampleScenario.node[63].veinsmobility 	minSpeed 	0
scalar RSUExampleScenario.node[63].veinsmobility 	maxSpeed 	13.999755939289
scalar RSUExampleScenario.node[63].veinsmobility 	totalDistance 	984.78478579421
scalar RSUExampleScenario.node[63].veinsmobility 	totalCO2Emission 	448.23097132973
scalar RSUExampleScenario.node[64].appl 	meanClusterNodes 	8
scalar RSUExampleScenario.node[64].appl 	meanClusterHeadUtility 	5.9549689572469
scalar RSUExampleScenario.node[64].appl 	NumberofCH 	0.16216216216216
scalar RSUExampleScenario.node[64].appl 	NumberofON 	0.62162162162162
scalar RSUExampleScenario.node[64].appl 	NumberofFN 	0.21621621621622
scalar RSUExampleScenario.node[64].veinsmobility 	startTime 	154.3
scalar RSUExampleScenario.node[64].veinsmobility 	totalTime 	295.7
scalar RSUExampleScenario.node[64].veinsmobility 	stopTime 	450
scalar RSUExampleScenario.node[64].veinsmobility 	minSpeed 	0
scalar RSUExampleScenario.node[64].veinsmobility 	maxSpeed 	13.999970732827
scalar RSUExampleScenario.node[64].veinsmobility 	totalDistance 	953.59675999461
scalar RSUExampleScenario.node[64].veinsmobility 	totalCO2Emission 	433.29832591521
scalar RSUExampleScenario.node[65].appl 	meanClusterNodes 	2
scalar RSUExampleScenario.node[65].appl 	meanClusterHeadUtility 	10.905739189385
scalar RSUExampleScenario.node[65].appl 	NumberofCH 	0.081081081081081
scalar RSUExampleScenario.node[65].appl 	NumberofON 	0.75675675675676
scalar RSUExampleScenario.node[65].appl 	NumberofFN 	0.16216216216216
scalar RSUExampleScenario.node[65].veinsmobility 	startTime 	156.7
scalar RSUExampleScenario.node[65].veinsmobility 	totalTime 	293.3
scalar RSUExampleScenario.node[65].veinsmobility 	stopTime 	450
scalar RSUExampleScenario.node[65].veinsmobility 	minSpeed 	0
scalar RSUExampleScenario.node[65].veinsmobility 	maxSpeed 	13.999673152964
scalar RSUExampleScenario.node[65].veinsmobility 	totalDistance 	940.32947349074
scalar RSUExampleScenario.node[65].veinsmobility 	totalCO2Emission 	427.69031264263
scalar RSUExampleScenario.node[66].appl 	meanClusterNodes 	6
scalar RSUExampleScenario.node[66].appl 	meanClusterHeadUtility 	8.1140628700785
scalar RSUExampleScenario.node[66].appl 	NumberofCH 	0.10810810810811
scalar RSUExampleScenario.node[66].appl 	NumberofON 	0.35135135135135
scalar RSUExampleScenario.node[66].appl 	NumberofFN 	0.54054054054054
scalar RSUExampleScenario.node[66].veinsmobility 	startTime 	159.1
scalar RSUExampleScenario.node[66].veinsmobility 	totalTime 	290.9
scalar RSUExampleScenario.node[66].veinsmobility 	stopTime 	450
scalar RSUExampleScenario.node[66].veinsmobility 	minSpeed 	0
scalar RSUExampleScenario.node[66].veinsmobility 	maxSpeed 	13.999550265223
scalar RSUExampleScenario.node[66].veinsmobility 	totalDistance 	928.07793520672
scalar RSUExampleScenario.node[66].veinsmobility 	totalCO2Emission 	424.09825605697
scalar RSUExampleScenario.node[67].appl 	meanClusterNodes 	4.8
scalar RSUExampleScenario.node[67].appl 	meanClusterHeadUtility 	6.8959570966307
scalar RSUExampleScenario.node[67].appl 	NumberofCH 	0.13513513513514
scalar RSUExampleScenario.node[67].appl 	NumberofON 	0.72972972972973
scalar RSUExampleScenario.node[67].appl 	NumberofFN 	0.13513513513514
scalar RSUExampleScenario.node[67].veinsmobility 	startTime 	161.5
scalar RSUExampleScenario.node[67].veinsmobility 	totalTime 	288.5
scalar RSUExampleScenario.node[67].veinsmobility 	stopTime 	450
scalar RSUExampleScenario.node[67].veinsmobility 	minSpeed 	0
scalar RSUExampleScenario.node[67].veinsmobility 	maxSpeed 	13.999375771326
scalar RSUExampleScenario.node[67].veinsmobility 	totalDistance 	912.82237305748
scalar RSUExampleScenario.node[67].veinsmobility 	totalCO2Emission 	421.16369732261
scalar RSUExampleScenario.node[68].appl 	meanClusterNodes 	6.25
scalar RSUExampleScenario.node[68].appl 	meanClusterHeadUtility 	8.2409280211013
scalar RSUExampleScenario.node[68].appl 	NumberofCH 	0.10810810810811
scalar RSUExampleScenario.node[68].appl 	NumberofON 	0.67567567567568
scalar RSUExampleScenario.node[68].appl 	NumberofFN 	0.21621621621622
scalar RSUExampleScenario.node[68].veinsmobility 	startTime 	163.9
scalar RSUExampleScenario.node[68].veinsmobility 	totalTime 	286.1
scalar RSUExampleScenario.node[68].veinsmobility 	stopTime 	450
scalar RSUExampleScenario.node[68].veinsmobility 	minSpeed 	0
scalar RSUExampleScenario.node[68].veinsmobility 	maxSpeed 	13.999910610593
scalar RSUExampleScenario.node[68].veinsmobility 	totalDistance 	893.14539508903
scalar RSUExampleScenario.node[68].veinsmobility 	totalCO2Emission 	419.5583978843
scalar RSUExampleScenario.node[69].appl 	meanClusterNodes 	1.75
scalar RSUExampleScenario.node[69].appl 	meanClusterHeadUtility 	8.4218027891496
scalar RSUExampleScenario.node[69].appl 	NumberofCH 	0.10810810810811
scalar RSUExampleScenario.node[69].appl 	NumberofON 	0.81081081081081
scalar RSUExampleScenario.node[69].appl 	NumberofFN 	0.081081081081081
scalar RSUExampleScenario.node[69].veinsmobility 	startTime 	166.3
scalar RSUExampleScenario.node[69].veinsmobility 	totalTime 	283.7
scalar RSUExampleScenario.node[69].veinsmobility 	stopTime 	450
scalar RSUExampleScenario.node[69].veinsmobility 	minSpeed 	0
scalar RSUExampleScenario.node[69].veinsmobility 	maxSpeed 	13.999167162718
scalar RSUExampleScenario.node[69].veinsmobility 	totalDistance 	858.89409213908
scalar RSUExampleScenario.node[69].veinsmobility 	totalCO2Emission 	414.10318431024
scalar RSUExampleScenario.node[7].appl 	meanClusterNodes 	2.3333333333333
scalar RSUExampleScenario.node[7].appl 	meanClusterHeadUtility 	6.2833344668526
scalar RSUExampleScenario.node[7].appl 	NumberofCH 	0.16216216216216
scalar RSUExampleScenario.node[7].appl 	NumberofON 	0.62162162162162
scalar RSUExampleScenario.node[7].appl 	NumberofFN 	0.21621621621622
scalar RSUExampleScenario.node[7].veinsmobility 	startTime 	16.9
scalar RSUExampleScenario.node[7].veinsmobility 	totalTime 	433.1
scalar RSUExampleScenario.node[7].veinsmobility 	stopTime 	450
scalar RSUExampleScenario.node[7].veinsmobility 	minSpeed 	0
scalar RSUExampleScenario.node[7].veinsmobility 	maxSpeed 	13.999991509649
scalar RSUExampleScenario.node[7].veinsmobility 	totalDistance 	2888.795578019
scalar RSUExampleScenario.node[7].veinsmobility 	totalCO2Emission 	773.21271698691
scalar RSUExampleScenario.node[70].appl 	meanClusterNodes 	4.5
scalar RSUExampleScenario.node[70].appl 	meanClusterHeadUtility 	7.9612820468216
scalar RSUExampleScenario.node[70].appl 	NumberofCH 	0.10810810810811
scalar RSUExampleScenario.node[70].appl 	NumberofON 	0.64864864864865
scalar RSUExampleScenario.node[70].appl 	NumberofFN 	0.24324324324324
scalar RSUExampleScenario.node[70].veinsmobility 	startTime 	168.8
scalar RSUExampleScenario.node[70].veinsmobility 	totalTime 	281.2
scalar RSUExampleScenario.node[70].veinsmobility 	stopTime 	450
scalar RSUExampleScenario.node[70].veinsmobility 	minSpeed 	0
scalar RSUExampleScenario.node[70].veinsmobility 	maxSpeed 	13.999517490203
scalar RSUExampleScenario.node[70].veinsmobility 	totalDistance 	825.94715893415
scalar RSUExampleScenario.node[70].veinsmobility 	totalCO2Emission 	406.12960932876
scalar RSUExampleScenario.node[71].appl 	meanClusterNodes 	6
scalar RSUExampleScenario.node[71].appl 	meanClusterHeadUtility 	5.6267974478679
scalar RSUExampleScenario.node[71].appl 	NumberofCH 	0.16216216216216
scalar RSUExampleScenario.node[71].appl 	NumberofON 	0.45945945945946
scalar RSUExampleScenario.node[71].appl 	NumberofFN 	0.37837837837838
scalar RSUExampleScenario.node[71].veinsmobility 	startTime 	171.2
scalar RSUExampleScenario.node[71].veinsmobility 	totalTime 	278.8
scalar RSUExampleScenario.node[71].veinsmobility 	stopTime 	450
scalar RSUExampleScenario.node[71].veinsmobility 	minSpeed 	0
scalar RSUExampleScenario.node[71].veinsmobility 	maxSpeed 	13.999581091409
scalar RSUExampleScenario.node[71].veinsmobility 	totalDistance 	792.5178085749
scalar RSUExampleScenario.node[71].veinsmobility 	totalCO2Emission 	401.24387870256
scalar RSUExampleScenario.node[72].appl 	meanClusterNodes 	0
scalar RSUExampleScenario.node[72].appl 	meanClusterHeadUtility 	0
scalar RSUExampleScenario.node[72].appl 	NumberofCH 	0.10810810810811
scalar RSUExampleScenario.node[72].appl 	NumberofON 	0
scalar RSUExampleScenario.node[72].appl 	NumberofFN 	0.89189189189189
scalar RSUExampleScenario.node[72].veinsmobility 	startTime 	173.6
scalar RSUExampleScenario.node[72].veinsmobility 	totalTime 	276.4
scalar RSUExampleScenario.node[72].veinsmobility 	stopTime 	450
scalar RSUExampleScenario.node[72].veinsmobility 	minSpeed 	0
scalar RSUExampleScenario.node[72].veinsmobility 	maxSpeed 	13.999405858973
scalar RSUExampleScenario.node[72].veinsmobility 	totalDistance 	758.47867196651
scalar RSUExampleScenario.node[72].veinsmobility 	totalCO2Emission 	395.83361715593
scalar RSUExampleScenario.node[73].appl 	meanClusterNodes 	6.5
scalar RSUExampleScenario.node[73].appl 	meanClusterHeadUtility 	8.5213174545422
scalar RSUExampleScenario.node[73].appl 	NumberofCH 	0.10810810810811
scalar RSUExampleScenario.node[73].appl 	NumberofON 	0.59459459459459
scalar RSUExampleScenario.node[73].appl 	NumberofFN 	0.2972972972973
scalar RSUExampleScenario.node[73].veinsmobility 	startTime 	176
scalar RSUExampleScenario.node[73].veinsmobility 	totalTime 	274
scalar RSUExampleScenario.node[73].veinsmobility 	stopTime 	450
scalar RSUExampleScenario.node[73].veinsmobility 	minSpeed 	0
scalar RSUExampleScenario.node[73].veinsmobility 	maxSpeed 	13.999923389645
scalar RSUExampleScenario.node[73].veinsmobility 	totalDistance 	724.87102862481
scalar RSUExampleScenario.node[73].veinsmobility 	totalCO2Emission 	390.16952873064
scalar RSUExampleScenario.node[74].appl 	meanClusterNodes 	0
scalar RSUExampleScenario.node[74].appl 	meanClusterHeadUtility 	0
scalar RSUExampleScenario.node[74].appl 	NumberofCH 	0.16216216216216
scalar RSUExampleScenario.node[74].appl 	NumberofON 	0
scalar RSUExampleScenario.node[74].appl 	NumberofFN 	0.83783783783784
scalar RSUExampleScenario.node[74].veinsmobility 	startTime 	178.4
scalar RSUExampleScenario.node[74].veinsmobility 	totalTime 	271.6
scalar RSUExampleScenario.node[74].veinsmobility 	stopTime 	450
scalar RSUExampleScenario.node[74].veinsmobility 	minSpeed 	0
scalar RSUExampleScenario.node[74].veinsmobility 	maxSpeed 	13.999984499614
scalar RSUExampleScenario.node[74].veinsmobility 	totalDistance 	691.36449309072
scalar RSUExampleScenario.node[74].veinsmobility 	totalCO2Emission 	385.65537769322
scalar RSUExampleScenario.node[75].appl 	meanClusterNodes 	4
scalar RSUExampleScenario.node[75].appl 	meanClusterHeadUtility 	5.3481936980714
scalar RSUExampleScenario.node[75].appl 	NumberofCH 	0.16216216216216
scalar RSUExampleScenario.node[75].appl 	NumberofON 	0.7027027027027
scalar RSUExampleScenario.node[75].appl 	NumberofFN 	0.13513513513514
scalar RSUExampleScenario.node[75].veinsmobility 	startTime 	180.8
scalar RSUExampleScenario.node[75].veinsmobility 	totalTime 	269.2
scalar RSUExampleScenario.node[75].veinsmobility 	stopTime 	450
scalar RSUExampleScenario.node[75].veinsmobility 	minSpeed 	0
scalar RSUExampleScenario.node[75].veinsmobility 	maxSpeed 	13.999839194859
scalar RSUExampleScenario.node[75].veinsmobility 	totalDistance 	657.5874781819
scalar RSUExampleScenario.node[75].veinsmobility 	totalCO2Emission 	380.10849125977
scalar RSUExampleScenario.node[76].appl 	meanClusterNodes 	2.5
scalar RSUExampleScenario.node[76].appl 	meanClusterHeadUtility 	7.840052466417
scalar RSUExampleScenario.node[76].appl 	NumberofCH 	0.10810810810811
scalar RSUExampleScenario.node[76].appl 	NumberofON 	0.83783783783784
scalar RSUExampleScenario.node[76].appl 	NumberofFN 	0.054054054054054
scalar RSUExampleScenario.node[76].veinsmobility 	startTime 	183.2
scalar RSUExampleScenario.node[76].veinsmobility 	totalTime 	266.8
scalar RSUExampleScenario.node[76].veinsmobility 	stopTime 	450
scalar RSUExampleScenario.node[76].veinsmobility 	minSpeed 	0
scalar RSUExampleScenario.node[76].veinsmobility 	maxSpeed 	13.999848305008
scalar RSUExampleScenario.node[76].veinsmobility 	totalDistance 	624.59395794469
scalar RSUExampleScenario.node[76].veinsmobility 	totalCO2Emission 	372.73650337642
scalar RSUExampleScenario.node[77].appl 	meanClusterNodes 	2.5
scalar RSUExampleScenario.node[77].appl 	meanClusterHeadUtility 	8.2275362860856
scalar RSUExampleScenario.node[77].appl 	NumberofCH 	0.10810810810811
scalar RSUExampleScenario.node[77].appl 	NumberofON 	0.64864864864865
scalar RSUExampleScenario.node[77].appl 	NumberofFN 	0.24324324324324
scalar RSUExampleScenario.node[77].veinsmobility 	startTime 	185.6
scalar RSUExampleScenario.node[77].veinsmobility 	totalTime 	264.4
scalar RSUExampleScenario.node[77].veinsmobility 	stopTime 	450
scalar RSUExampleScenario.node[77].veinsmobility 	minSpeed 	0
scalar RSUExampleScenario.node[77].veinsmobility 	maxSpeed 	13.999587411485
scalar RSUExampleScenario.node[77].veinsmobility 	totalDistance 	592.15316034123
scalar RSUExampleScenario.node[77].veinsmobility 	totalCO2Emission 	368.32144864806
scalar RSUExampleScenario.node[78].appl 	meanClusterNodes 	4.2
scalar RSUExampleScenario.node[78].appl 	meanClusterHeadUtility 	6.9642047234118
scalar RSUExampleScenario.node[78].appl 	NumberofCH 	0.13513513513514
scalar RSUExampleScenario.node[78].appl 	NumberofON 	0.67567567567568
scalar RSUExampleScenario.node[78].appl 	NumberofFN 	0.18918918918919
scalar RSUExampleScenario.node[78].veinsmobility 	startTime 	188
scalar RSUExampleScenario.node[78].veinsmobility 	totalTime 	262
scalar RSUExampleScenario.node[78].veinsmobility 	stopTime 	450
scalar RSUExampleScenario.node[78].veinsmobility 	minSpeed 	0
scalar RSUExampleScenario.node[78].veinsmobility 	maxSpeed 	13.999845891439
scalar RSUExampleScenario.node[78].veinsmobility 	totalDistance 	557.27686187973
scalar RSUExampleScenario.node[78].veinsmobility 	totalCO2Emission 	362.04578113687
scalar RSUExampleScenario.node[79].appl 	meanClusterNodes 	3.1666666666667
scalar RSUExampleScenario.node[79].appl 	meanClusterHeadUtility 	5.5351206381612
scalar RSUExampleScenario.node[79].appl 	NumberofCH 	0.16216216216216
scalar RSUExampleScenario.node[79].appl 	NumberofON 	0.37837837837838
scalar RSUExampleScenario.node[79].appl 	NumberofFN 	0.45945945945946
scalar RSUExampleScenario.node[79].veinsmobility 	startTime 	190.4
scalar RSUExampleScenario.node[79].veinsmobility 	totalTime 	259.6
scalar RSUExampleScenario.node[79].veinsmobility 	stopTime 	450
scalar RSUExampleScenario.node[79].veinsmobility 	minSpeed 	0
scalar RSUExampleScenario.node[79].veinsmobility 	maxSpeed 	13.99957611399
scalar RSUExampleScenario.node[79].veinsmobility 	totalDistance 	524.16202821697
scalar RSUExampleScenario.node[79].veinsmobility 	totalCO2Emission 	357.65506411775
scalar RSUExampleScenario.node[8].appl 	meanClusterNodes 	2.75
scalar RSUExampleScenario.node[8].appl 	meanClusterHeadUtility 	8.3107998729805
scalar RSUExampleScenario.node[8].appl 	NumberofCH 	0.10810810810811
scalar RSUExampleScenario.node[8].appl 	NumberofON 	0.7027027027027
scalar RSUExampleScenario.node[8].appl 	NumberofFN 	0.18918918918919
scalar RSUExampleScenario.node[8].veinsmobility 	startTime 	19.3
scalar RSUExampleScenario.node[8].veinsmobility 	totalTime 	430.7
scalar RSUExampleScenario.node[8].veinsmobility 	stopTime 	450
scalar RSUExampleScenario.node[8].veinsmobility 	minSpeed 	0
scalar RSUExampleScenario.node[8].veinsmobility 	maxSpeed 	13.999967162991
scalar RSUExampleScenario.node[8].veinsmobility 	totalDistance 	2855.6660052239
scalar RSUExampleScenario.node[8].veinsmobility 	totalCO2Emission 	772.24993498161
scalar RSUExampleScenario.node[80].appl 	meanClusterNodes 	0
scalar RSUExampleScenario.node[80].appl 	meanClusterHeadUtility 	0
scalar RSUExampleScenario.node[80].appl 	NumberofCH 	0.10810810810811
scalar RSUExampleScenario.node[80].appl 	NumberofON 	0.21621621621622
scalar RSUExampleScenario.node[80].appl 	NumberofFN 	0.67567567567568
scalar RSUExampleScenario.node[80].veinsmobility 	startTime 	192.9
scalar RSUExampleScenario.node[80].veinsmobility 	totalTime 	257.1
scalar RSUExampleScenario.node[80].veinsmobility 	stopTime 	450
scalar RSUExampleScenario.node[80].veinsmobility 	minSpeed 	0
scalar RSUExampleScenario.node[80].veinsmobility 	maxSpeed 	13.999746532515
scalar RSUExampleScenario.node[80].veinsmobility 	totalDistance 	489.57405524513
scalar RSUExampleScenario.node[80].veinsmobility 	totalCO2Emission 	351.35561531635
scalar RSUExampleScenario.node[81].appl 	meanClusterNodes 	3.5
scalar RSUExampleScenario.node[81].appl 	meanClusterHeadUtility 	8.3132729568369
scalar RSUExampleScenario.node[81].appl 	NumberofCH 	0.10810810810811
scalar RSUExampleScenario.node[81].appl 	NumberofON 	0.54054054054054
scalar RSUExampleScenario.node[81].appl 	NumberofFN 	0.35135135135135
scalar RSUExampleScenario.node[81].veinsmobility 	startTime 	195.3
scalar RSUExampleScenario.node[81].veinsmobility 	totalTime 	254.7
scalar RSUExampleScenario.node[81].veinsmobility 	stopTime 	450
scalar RSUExampleScenario.node[81].veinsmobility 	minSpeed 	0
scalar RSUExampleScenario.node[81].veinsmobility 	maxSpeed 	13.999236635671
scalar RSUExampleScenario.node[81].veinsmobility 	totalDistance 	455.436691928
scalar RSUExampleScenario.node[81].veinsmobility 	totalCO2Emission 	344.75398045472
scalar RSUExampleScenario.node[82].appl 	meanClusterNodes 	7.25
scalar RSUExampleScenario.node[82].appl 	meanClusterHeadUtility 	8.8479699057134
scalar RSUExampleScenario.node[82].appl 	NumberofCH 	0.10810810810811
scalar RSUExampleScenario.node[82].appl 	NumberofON 	0.32432432432432
scalar RSUExampleScenario.node[82].appl 	NumberofFN 	0.56756756756757
scalar RSUExampleScenario.node[82].veinsmobility 	startTime 	197.7
scalar RSUExampleScenario.node[82].veinsmobility 	totalTime 	252.3
scalar RSUExampleScenario.node[82].veinsmobility 	stopTime 	450
scalar RSUExampleScenario.node[82].veinsmobility 	minSpeed 	0
scalar RSUExampleScenario.node[82].veinsmobility 	maxSpeed 	13.998647880286
scalar RSUExampleScenario.node[82].veinsmobility 	totalDistance 	422.80958750587
scalar RSUExampleScenario.node[82].veinsmobility 	totalCO2Emission 	340.17038883809
scalar RSUExampleScenario.node[83].appl 	meanClusterNodes 	3.1666666666667
scalar RSUExampleScenario.node[83].appl 	meanClusterHeadUtility 	5.7859180805517
scalar RSUExampleScenario.node[83].appl 	NumberofCH 	0.16216216216216
scalar RSUExampleScenario.node[83].appl 	NumberofON 	0.7027027027027
scalar RSUExampleScenario.node[83].appl 	NumberofFN 	0.13513513513514
scalar RSUExampleScenario.node[83].veinsmobility 	startTime 	200.1
scalar RSUExampleScenario.node[83].veinsmobility 	totalTime 	249.9
scalar RSUExampleScenario.node[83].veinsmobility 	stopTime 	450
scalar RSUExampleScenario.node[83].veinsmobility 	minSpeed 	0
scalar RSUExampleScenario.node[83].veinsmobility 	maxSpeed 	13.999113545406
scalar RSUExampleScenario.node[83].veinsmobility 	totalDistance 	388.31260503395
scalar RSUExampleScenario.node[83].veinsmobility 	totalCO2Emission 	334.12887852611
scalar RSUExampleScenario.node[84].appl 	meanClusterNodes 	7.5
scalar RSUExampleScenario.node[84].appl 	meanClusterHeadUtility 	8.9817514506849
scalar RSUExampleScenario.node[84].appl 	NumberofCH 	0.10810810810811
scalar RSUExampleScenario.node[84].appl 	NumberofON 	0.64864864864865
scalar RSUExampleScenario.node[84].appl 	NumberofFN 	0.24324324324324
scalar RSUExampleScenario.node[84].veinsmobility 	startTime 	202.5
scalar RSUExampleScenario.node[84].veinsmobility 	totalTime 	247.5
scalar RSUExampleScenario.node[84].veinsmobility 	stopTime 	450
scalar RSUExampleScenario.node[84].veinsmobility 	minSpeed 	0
scalar RSUExampleScenario.node[84].veinsmobility 	maxSpeed 	13.99884899996
scalar RSUExampleScenario.node[84].veinsmobility 	totalDistance 	355.11742741358
scalar RSUExampleScenario.node[84].veinsmobility 	totalCO2Emission 	328.98139529783
scalar RSUExampleScenario.node[85].appl 	meanClusterNodes 	3.5
scalar RSUExampleScenario.node[85].appl 	meanClusterHeadUtility 	8.9180462245801
scalar RSUExampleScenario.node[85].appl 	NumberofCH 	0.10810810810811
scalar RSUExampleScenario.node[85].appl 	NumberofON 	0.78378378378378
scalar RSUExampleScenario.node[85].appl 	NumberofFN 	0.10810810810811
scalar RSUExampleScenario.node[85].veinsmobility 	startTime 	204.9
scalar RSUExampleScenario.node[85].veinsmobility 	totalTime 	245.1
scalar RSUExampleScenario.node[85].veinsmobility 	stopTime 	450
scalar RSUExampleScenario.node[85].veinsmobility 	minSpeed 	0
scalar RSUExampleScenario.node[85].veinsmobility 	maxSpeed 	13.990624547205
scalar RSUExampleScenario.node[85].veinsmobility 	totalDistance 	321.25801410987
scalar RSUExampleScenario.node[85].veinsmobility 	totalCO2Emission 	322.09082588648
scalar RSUExampleScenario.node[86].appl 	meanClusterNodes 	3.6666666666667
scalar RSUExampleScenario.node[86].appl 	meanClusterHeadUtility 	5.9599962598135
scalar RSUExampleScenario.node[86].appl 	NumberofCH 	0.16216216216216
scalar RSUExampleScenario.node[86].appl 	NumberofON 	0.32432432432432
scalar RSUExampleScenario.node[86].appl 	NumberofFN 	0.51351351351351
scalar RSUExampleScenario.node[86].veinsmobility 	startTime 	207.3
scalar RSUExampleScenario.node[86].veinsmobility 	totalTime 	242.7
scalar RSUExampleScenario.node[86].veinsmobility 	stopTime 	450
scalar RSUExampleScenario.node[86].veinsmobility 	minSpeed 	0
scal