version 2
run statisticLeach-495-20150323-10:10:23-13044
attr c 8
attr configname statisticLeach
attr datetime 20150323-10:10:23
attr experiment statisticLeach
attr inifile omnetpp.ini
attr iterationvars "$p=1/8, $c=8"
attr iterationvars2 "$p=1/8, $c=8, $repetition=5"
attr measurement "$p=1/8, $c=8"
attr network RSUExampleScenario
attr p 1/8
attr processid 13044
attr repetition 5
attr replication #5
attr resultdir results
attr runnumber 495
attr seedset 495

scalar . 	c 	8
scalar RSUExampleScenario.node[0].appl 	meanClusterNodes 	0.75
scalar RSUExampleScenario.node[0].appl 	meanClusterHeadUtility 	8.456453124649
scalar RSUExampleScenario.node[0].appl 	NumberofCH 	0.10810810810811
scalar RSUExampleScenario.node[0].appl 	NumberofON 	0.56756756756757
scalar RSUExampleScenario.node[0].appl 	NumberofFN 	0.32432432432432
scalar RSUExampleScenario.node[0].veinsmobility 	startTime 	0.1
scalar RSUExampleScenario.node[0].veinsmobility 	totalTime 	449.9
scalar RSUExampleScenario.node[0].veinsmobility 	stopTime 	450
scalar RSUExampleScenario.node[0].veinsmobility 	minSpeed 	0
scalar RSUExampleScenario.node[0].veinsmobility 	maxSpeed 	13.999973905729
scalar RSUExampleScenario.node[0].veinsmobility 	totalDistance 	3130.5142135943
scalar RSUExampleScenario.node[0].veinsmobility 	totalCO2Emission 	837.24250498789
scalar RSUExampleScenario.node[1].appl 	meanClusterNodes 	0.5
scalar RSUExampleScenario.node[1].appl 	meanClusterHeadUtility 	8.4855402972042
scalar RSUExampleScenario.node[1].appl 	NumberofCH 	0.10810810810811
scalar RSUExampleScenario.node[1].appl 	NumberofON 	0.081081081081081
scalar RSUExampleScenario.node[1].appl 	NumberofFN 	0.81081081081081
scalar RSUExampleScenario.node[1].veinsmobility 	startTime 	2.5
scalar RSUExampleScenario.node[1].veinsmobility 	totalTime 	447.5
scalar RSUExampleScenario.node[1].veinsmobility 	stopTime 	450
scalar RSUExampleScenario.node[1].veinsmobility 	minSpeed 	0
scalar RSUExampleScenario.node[1].veinsmobility 	maxSpeed 	13.999814016407
scalar RSUExampleScenario.node[1].veinsmobility 	totalDistance 	3079.4040714626
scalar RSUExampleScenario.node[1].veinsmobility 	totalCO2Emission 	827.50012087811
scalar RSUExampleScenario.node[10].appl 	meanClusterNodes 	3.25
scalar RSUExampleScenario.node[10].appl 	meanClusterHeadUtility 	9.1469857079478
scalar RSUExampleScenario.node[10].appl 	NumberofCH 	0.10810810810811
scalar RSUExampleScenario.node[10].appl 	NumberofON 	0.37837837837838
scalar RSUExampleScenario.node[10].appl 	NumberofFN 	0.51351351351351
scalar RSUExampleScenario.node[10].veinsmobility 	startTime 	24.2
scalar RSUExampleScenario.node[10].veinsmobility 	totalTime 	425.8
scalar RSUExampleScenario.node[10].veinsmobility 	stopTime 	450
scalar RSUExampleScenario.node[10].veinsmobility 	minSpeed 	0
scalar RSUExampleScenario.node[10].veinsmobility 	maxSpeed 	13.999960880235
scalar RSUExampleScenario.node[10].veinsmobility 	totalDistance 	2793.8676965046
scalar RSUExampleScenario.node[10].veinsmobility 	totalCO2Emission 	759.54928401548
scalar RSUExampleScenario.node[11].appl 	meanClusterNodes 	4.75
scalar RSUExampleScenario.node[11].appl 	meanClusterHeadUtility 	8.8796420594015
scalar RSUExampleScenario.node[11].appl 	NumberofCH 	0.10810810810811
scalar RSUExampleScenario.node[11].appl 	NumberofON 	0.56756756756757
scalar RSUExampleScenario.node[11].appl 	NumberofFN 	0.32432432432432
scalar RSUExampleScenario.node[11].veinsmobility 	startTime 	26.6
scalar RSUExampleScenario.node[11].veinsmobility 	totalTime 	423.4
scalar RSUExampleScenario.node[11].veinsmobility 	stopTime 	450
scalar RSUExampleScenario.node[11].veinsmobility 	minSpeed 	0
scalar RSUExampleScenario.node[11].veinsmobility 	maxSpeed 	13.999999023948
scalar RSUExampleScenario.node[11].veinsmobility 	totalDistance 	2754.0143120107
scalar RSUExampleScenario.node[11].veinsmobility 	totalCO2Emission 	751.88366584317
scalar RSUExampleScenario.node[12].appl 	meanClusterNodes 	1.75
scalar RSUExampleScenario.node[12].appl 	meanClusterHeadUtility 	8.6160312936459
scalar RSUExampleScenario.node[12].appl 	NumberofCH 	0.10810810810811
scalar RSUExampleScenario.node[12].appl 	NumberofON 	0.78378378378378
scalar RSUExampleScenario.node[12].appl 	NumberofFN 	0.10810810810811
scalar RSUExampleScenario.node[12].veinsmobility 	startTime 	29
scalar RSUExampleScenario.node[12].veinsmobility 	totalTime 	421
scalar RSUExampleScenario.node[12].veinsmobility 	stopTime 	450
scalar RSUExampleScenario.node[12].veinsmobility 	minSpeed 	0
scalar RSUExampleScenario.node[12].veinsmobility 	maxSpeed 	13.99993344815
scalar RSUExampleScenario.node[12].veinsmobility 	totalDistance 	2723.7276068624
scalar RSUExampleScenario.node[12].veinsmobility 	totalCO2Emission 	748.7386243722
scalar RSUExampleScenario.node[13].appl 	meanClusterNodes 	3.1666666666667
scalar RSUExampleScenario.node[13].appl 	meanClusterHeadUtility 	5.4595023101393
scalar RSUExampleScenario.node[13].appl 	NumberofCH 	0.16216216216216
scalar RSUExampleScenario.node[13].appl 	NumberofON 	0.62162162162162
scalar RSUExampleScenario.node[13].appl 	NumberofFN 	0.21621621621622
scalar RSUExampleScenario.node[13].veinsmobility 	startTime 	31.4
scalar RSUExampleScenario.node[13].veinsmobility 	totalTime 	418.6
scalar RSUExampleScenario.node[13].veinsmobility 	stopTime 	450
scalar RSUExampleScenario.node[13].veinsmobility 	minSpeed 	0
scalar RSUExampleScenario.node[13].veinsmobility 	maxSpeed 	13.999998219123
scalar RSUExampleScenario.node[13].veinsmobility 	totalDistance 	2680.3261588942
scalar RSUExampleScenario.node[13].veinsmobility 	totalCO2Emission 	741.01462345783
scalar RSUExampleScenario.node[14].appl 	meanClusterNodes 	5.8333333333333
scalar RSUExampleScenario.node[14].appl 	meanClusterHeadUtility 	6.0993256522835
scalar RSUExampleScenario.node[14].appl 	NumberofCH 	0.16216216216216
scalar RSUExampleScenario.node[14].appl 	NumberofON 	0.37837837837838
scalar RSUExampleScenario.node[14].appl 	NumberofFN 	0.45945945945946
scalar RSUExampleScenario.node[14].veinsmobility 	startTime 	33.8
scalar RSUExampleScenario.node[14].veinsmobility 	totalTime 	416.2
scalar RSUExampleScenario.node[14].veinsmobility 	stopTime 	450
scalar RSUExampleScenario.node[14].veinsmobility 	minSpeed 	0
scalar RSUExampleScenario.node[14].veinsmobility 	maxSpeed 	13.999993572291
scalar RSUExampleScenario.node[14].veinsmobility 	totalDistance 	2653.351092492
scalar RSUExampleScenario.node[14].veinsmobility 	totalCO2Emission 	735.55096185087
scalar RSUExampleScenario.node[15].appl 	meanClusterNodes 	5.25
scalar RSUExampleScenario.node[15].appl 	meanClusterHeadUtility 	8.2772186221495
scalar RSUExampleScenario.node[15].appl 	NumberofCH 	0.10810810810811
scalar RSUExampleScenario.node[15].appl 	NumberofON 	0.59459459459459
scalar RSUExampleScenario.node[15].appl 	NumberofFN 	0.2972972972973
scalar RSUExampleScenario.node[15].veinsmobility 	startTime 	36.2
scalar RSUExampleScenario.node[15].veinsmobility 	totalTime 	413.8
scalar RSUExampleScenario.node[15].veinsmobility 	stopTime 	450
scalar RSUExampleScenario.node[15].veinsmobility 	minSpeed 	0
scalar RSUExampleScenario.node[15].veinsmobility 	maxSpeed 	13.999972295533
scalar RSUExampleScenario.node[15].veinsmobility 	totalDistance 	2614.425529685
scalar RSUExampleScenario.node[15].veinsmobility 	totalCO2Emission 	728.60539446456
scalar RSUExampleScenario.node[16].appl 	meanClusterNodes 	3
scalar RSUExampleScenario.node[16].appl 	meanClusterHeadUtility 	8.3372169684262
scalar RSUExampleScenario.node[16].appl 	NumberofCH 	0.10810810810811
scalar RSUExampleScenario.node[16].appl 	NumberofON 	0.51351351351351
scalar RSUExampleScenario.node[16].appl 	NumberofFN 	0.37837837837838
scalar RSUExampleScenario.node[16].veinsmobility 	startTime 	38.6
scalar RSUExampleScenario.node[16].veinsmobility 	totalTime 	411.4
scalar RSUExampleScenario.node[16].veinsmobility 	stopTime 	450
scalar RSUExampleScenario.node[16].veinsmobility 	minSpeed 	0
scalar RSUExampleScenario.node[16].veinsmobility 	maxSpeed 	13.999870612179
scalar RSUExampleScenario.node[16].veinsmobility 	totalDistance 	2583.5657583831
scalar RSUExampleScenario.node[16].veinsmobility 	totalCO2Emission 	724.92242165184
scalar RSUExampleScenario.node[17].appl 	meanClusterNodes 	2.75
scalar RSUExampleScenario.node[17].appl 	meanClusterHeadUtility 	7.8308427783397
scalar RSUExampleScenario.node[17].appl 	NumberofCH 	0.10810810810811
scalar RSUExampleScenario.node[17].appl 	NumberofON 	0.7027027027027
scalar RSUExampleScenario.node[17].appl 	NumberofFN 	0.18918918918919
scalar RSUExampleScenario.node[17].veinsmobility 	startTime 	41
scalar RSUExampleScenario.node[17].veinsmobility 	totalTime 	409
scalar RSUExampleScenario.node[17].veinsmobility 	stopTime 	450
scalar RSUExampleScenario.node[17].veinsmobility 	minSpeed 	0
scalar RSUExampleScenario.node[17].veinsmobility 	maxSpeed 	13.999918173472
scalar RSUExampleScenario.node[17].veinsmobility 	totalDistance 	2539.5088383144
scalar RSUExampleScenario.node[17].veinsmobility 	totalCO2Emission 	717.44213148181
scalar RSUExampleScenario.node[18].appl 	meanClusterNodes 	4
scalar RSUExampleScenario.node[18].appl 	meanClusterHeadUtility 	6.590051230444
scalar RSUExampleScenario.node[18].appl 	NumberofCH 	0.13513513513514
scalar RSUExampleScenario.node[18].appl 	NumberofON 	0.7027027027027
scalar RSUExampleScenario.node[18].appl 	NumberofFN 	0.16216216216216
scalar RSUExampleScenario.node[18].veinsmobility 	startTime 	43.4
scalar RSUExampleScenario.node[18].veinsmobility 	totalTime 	406.6
scalar RSUExampleScenario.node[18].veinsmobility 	stopTime 	450
scalar RSUExampleScenario.node[18].veinsmobility 	minSpeed 	0
scalar RSUExampleScenario.node[18].veinsmobility 	maxSpeed 	13.999922176595
scalar RSUExampleScenario.node[18].veinsmobility 	totalDistance 	2506.7825748706
scalar RSUExampleScenario.node[18].veinsmobility 	totalCO2Emission 	713.95339293577
scalar RSUExampleScenario.node[19].appl 	meanClusterNodes 	7.25
scalar RSUExampleScenario.node[19].appl 	meanClusterHeadUtility 	8.4949381803877
scalar RSUExampleScenario.node[19].appl 	NumberofCH 	0.10810810810811
scalar RSUExampleScenario.node[19].appl 	NumberofON 	0.48648648648649
scalar RSUExampleScenario.node[19].appl 	NumberofFN 	0.40540540540541
scalar RSUExampleScenario.node[19].veinsmobility 	startTime 	45.8
scalar RSUExampleScenario.node[19].veinsmobility 	totalTime 	404.2
scalar RSUExampleScenario.node[19].veinsmobility 	stopTime 	450
scalar RSUExampleScenario.node[19].veinsmobility 	minSpeed 	0
scalar RSUExampleScenario.node[19].veinsmobility 	maxSpeed 	13.999989664725
scalar RSUExampleScenario.node[19].veinsmobility 	totalDistance 	2471.0714632823
scalar RSUExampleScenario.node[19].veinsmobility 	totalCO2Emission 	708.27713790133
scalar RSUExampleScenario.node[2].appl 	meanClusterNodes 	3.4
scalar RSUExampleScenario.node[2].appl 	meanClusterHeadUtility 	7.3269533443075
scalar RSUExampleScenario.node[2].appl 	NumberofCH 	0.13513513513514
scalar RSUExampleScenario.node[2].appl 	NumberofON 	0.43243243243243
scalar RSUExampleScenario.node[2].appl 	NumberofFN 	0.43243243243243
scalar RSUExampleScenario.node[2].veinsmobility 	startTime 	4.9
scalar RSUExampleScenario.node[2].veinsmobility 	totalTime 	445.1
scalar RSUExampleScenario.node[2].veinsmobility 	stopTime 	450
scalar RSUExampleScenario.node[2].veinsmobility 	minSpeed 	0
scalar RSUExampleScenario.node[2].veinsmobility 	maxSpeed 	13.999830794979
scalar RSUExampleScenario.node[2].veinsmobility 	totalDistance 	3039.665249012
scalar RSUExampleScenario.node[2].veinsmobility 	totalCO2Emission 	822.36596332765
scalar RSUExampleScenario.node[20].appl 	meanClusterNodes 	5.75
scalar RSUExampleScenario.node[20].appl 	meanClusterHeadUtility 	8.0767122931797
scalar RSUExampleScenario.node[20].appl 	NumberofCH 	0.10810810810811
scalar RSUExampleScenario.node[20].appl 	NumberofON 	0.51351351351351
scalar RSUExampleScenario.node[20].appl 	NumberofFN 	0.37837837837838
scalar RSUExampleScenario.node[20].veinsmobility 	startTime 	48.3
scalar RSUExampleScenario.node[20].veinsmobility 	totalTime 	401.7
scalar RSUExampleScenario.node[20].veinsmobility 	stopTime 	450
scalar RSUExampleScenario.node[20].veinsmobility 	minSpeed 	0
scalar RSUExampleScenario.node[20].veinsmobility 	maxSpeed 	13.999922966317
scalar RSUExampleScenario.node[20].veinsmobility 	totalDistance 	2439.2813356344
scalar RSUExampleScenario.node[20].veinsmobility 	totalCO2Emission 	702.48598945116
scalar RSUExampleScenario.node[21].appl 	meanClusterNodes 	3.8333333333333
scalar RSUExampleScenario.node[21].appl 	meanClusterHeadUtility 	5.8824784931756
scalar RSUExampleScenario.node[21].appl 	NumberofCH 	0.16216216216216
scalar RSUExampleScenario.node[21].appl 	NumberofON 	0.43243243243243
scalar RSUExampleScenario.node[21].appl 	NumberofFN 	0.40540540540541
scalar RSUExampleScenario.node[21].veinsmobility 	startTime 	50.7
scalar RSUExampleScenario.node[21].veinsmobility 	totalTime 	399.3
scalar RSUExampleScenario.node[21].veinsmobility 	stopTime 	450
scalar RSUExampleScenario.node[21].veinsmobility 	minSpeed 	0
scalar RSUExampleScenario.node[21].veinsmobility 	maxSpeed 	13.999954332756
scalar RSUExampleScenario.node[21].veinsmobility 	totalDistance 	2402.146171416
scalar RSUExampleScenario.node[21].veinsmobility 	totalCO2Emission 	698.18226347285
scalar RSUExampleScenario.node[22].appl 	meanClusterNodes 	5.25
scalar RSUExampleScenario.node[22].appl 	meanClusterHeadUtility 	9.2850195299031
scalar RSUExampleScenario.node[22].appl 	NumberofCH 	0.10810810810811
scalar RSUExampleScenario.node[22].appl 	NumberofON 	0.40540540540541
scalar RSUExampleScenario.node[22].appl 	NumberofFN 	0.48648648648649
scalar RSUExampleScenario.node[22].veinsmobility 	startTime 	53.1
scalar RSUExampleScenario.node[22].veinsmobility 	totalTime 	396.9
scalar RSUExampleScenario.node[22].veinsmobility 	stopTime 	450
scalar RSUExampleScenario.node[22].veinsmobility 	minSpeed 	0
scalar RSUExampleScenario.node[22].veinsmobility 	maxSpeed 	13.999600001029
scalar RSUExampleScenario.node[22].veinsmobility 	totalDistance 	2373.6682230277
scalar RSUExampleScenario.node[22].veinsmobility 	totalCO2Emission 	689.93952941033
scalar RSUExampleScenario.node[23].appl 	meanClusterNodes 	2.5
scalar RSUExampleScenario.node[23].appl 	meanClusterHeadUtility 	8.3336103219464
scalar RSUExampleScenario.node[23].appl 	NumberofCH 	0.10810810810811
scalar RSUExampleScenario.node[23].appl 	NumberofON 	0.48648648648649
scalar RSUExampleScenario.node[23].appl 	NumberofFN 	0.40540540540541
scalar RSUExampleScenario.node[23].veinsmobility 	startTime 	55.5
scalar RSUExampleScenario.node[23].veinsmobility 	totalTime 	394.5
scalar RSUExampleScenario.node[23].veinsmobility 	stopTime 	450
scalar RSUExampleScenario.node[23].veinsmobility 	minSpeed 	0
scalar RSUExampleScenario.node[23].veinsmobility 	maxSpeed 	13.999941410779
scalar RSUExampleScenario.node[23].veinsmobility 	totalDistance 	2333.418187678
scalar RSUExampleScenario.node[23].veinsmobility 	totalCO2Emission 	681.32703401626
scalar RSUExampleScenario.node[24].appl 	meanClusterNodes 	3.5
scalar RSUExampleScenario.node[24].appl 	meanClusterHeadUtility 	8.3610398473865
scalar RSUExampleScenario.node[24].appl 	NumberofCH 	0.10810810810811
scalar RSUExampleScenario.node[24].appl 	NumberofON 	0.83783783783784
scalar RSUExampleScenario.node[24].appl 	NumberofFN 	0.054054054054054
scalar RSUExampleScenario.node[24].veinsmobility 	startTime 	57.9
scalar RSUExampleScenario.node[24].veinsmobility 	totalTime 	392.1
scalar RSUExampleScenario.node[24].veinsmobility 	stopTime 	450
scalar RSUExampleScenario.node[24].veinsmobility 	minSpeed 	0
scalar RSUExampleScenario.node[24].veinsmobility 	maxSpeed 	13.999944181389
scalar RSUExampleScenario.node[24].veinsmobility 	totalDistance 	2304.8183152174
scalar RSUExampleScenario.node[24].veinsmobility 	totalCO2Emission 	673.85032231584
scalar RSUExampleScenario.node[25].appl 	meanClusterNodes 	2.5
scalar RSUExampleScenario.node[25].appl 	meanClusterHeadUtility 	9.4418861549819
scalar RSUExampleScenario.node[25].appl 	NumberofCH 	0.10810810810811
scalar RSUExampleScenario.node[25].appl 	NumberofON 	0.62162162162162
scalar RSUExampleScenario.node[25].appl 	NumberofFN 	0.27027027027027
scalar RSUExampleScenario.node[25].veinsmobility 	startTime 	60.3
scalar RSUExampleScenario.node[25].veinsmobility 	totalTime 	389.7
scalar RSUExampleScenario.node[25].veinsmobility 	stopTime 	450
scalar RSUExampleScenario.node[25].veinsmobility 	minSpeed 	0
scalar RSUExampleScenario.node[25].veinsmobility 	maxSpeed 	13.999987728028
scalar RSUExampleScenario.node[25].veinsmobility 	totalDistance 	2266.6926748669
scalar RSUExampleScenario.node[25].veinsmobility 	totalCO2Emission 	671.24334595929
scalar RSUExampleScenario.node[26].appl 	meanClusterNodes 	4.75
scalar RSUExampleScenario.node[26].appl 	meanClusterHeadUtility 	8.6513879540824
scalar RSUExampleScenario.node[26].appl 	NumberofCH 	0.10810810810811
scalar RSUExampleScenario.node[26].appl 	NumberofON 	0.75675675675676
scalar RSUExampleScenario.node[26].appl 	NumberofFN 	0.13513513513514
scalar RSUExampleScenario.node[26].veinsmobility 	startTime 	62.7
scalar RSUExampleScenario.node[26].veinsmobility 	totalTime 	387.3
scalar RSUExampleScenario.node[26].veinsmobility 	stopTime 	450
scalar RSUExampleScenario.node[26].veinsmobility 	minSpeed 	0
scalar RSUExampleScenario.node[26].veinsmobility 	maxSpeed 	13.999941681586
scalar RSUExampleScenario.node[26].veinsmobility 	totalDistance 	2237.8765363142
scalar RSUExampleScenario.node[26].veinsmobility 	totalCO2Emission 	668.12723380347
scalar RSUExampleScenario.node[27].appl 	meanClusterNodes 	3.5
scalar RSUExampleScenario.node[27].appl 	meanClusterHeadUtility 	5.8041763759803
scalar RSUExampleScenario.node[27].appl 	NumberofCH 	0.16216216216216
scalar RSUExampleScenario.node[27].appl 	NumberofON 	0.67567567567568
scalar RSUExampleScenario.node[27].appl 	NumberofFN 	0.16216216216216
scalar RSUExampleScenario.node[27].veinsmobility 	startTime 	65.1
scalar RSUExampleScenario.node[27].veinsmobility 	totalTime 	384.9
scalar RSUExampleScenario.node[27].veinsmobility 	stopTime 	450
scalar RSUExampleScenario.node[27].veinsmobility 	minSpeed 	0
scalar RSUExampleScenario.node[27].veinsmobility 	maxSpeed 	13.999995748347
scalar RSUExampleScenario.node[27].veinsmobility 	totalDistance 	2199.2896756554
scalar RSUExampleScenario.node[27].veinsmobility 	totalCO2Emission 	659.49691749442
scalar RSUExampleScenario.node[28].appl 	meanClusterNodes 	3.5
scalar RSUExampleScenario.node[28].appl 	meanClusterHeadUtility 	6.0732326633556
scalar RSUExampleScenario.node[28].appl 	NumberofCH 	0.16216216216216
scalar RSUExampleScenario.node[28].appl 	NumberofON 	0.72972972972973
scalar RSUExampleScenario.node[28].appl 	NumberofFN 	0.10810810810811
scalar RSUExampleScenario.node[28].veinsmobility 	startTime 	67.5
scalar RSUExampleScenario.node[28].veinsmobility 	totalTime 	382.5
scalar RSUExampleScenario.node[28].veinsmobility 	stopTime 	450
scalar RSUExampleScenario.node[28].veinsmobility 	minSpeed 	0
scalar RSUExampleScenario.node[28].veinsmobility 	maxSpeed 	13.99996203965
scalar RSUExampleScenario.node[28].veinsmobility 	totalDistance 	2167.6054832676
scalar RSUExampleScenario.node[28].veinsmobility 	totalCO2Emission 	654.34644004421
scalar RSUExampleScenario.node[29].appl 	meanClusterNodes 	2.25
scalar RSUExampleScenario.node[29].appl 	meanClusterHeadUtility 	8.0298305399467
scalar RSUExampleScenario.node[29].appl 	NumberofCH 	0.10810810810811
scalar RSUExampleScenario.node[29].appl 	NumberofON 	0.81081081081081
scalar RSUExampleScenario.node[29].appl 	NumberofFN 	0.081081081081081
scalar RSUExampleScenario.node[29].veinsmobility 	startTime 	69.9
scalar RSUExampleScenario.node[29].veinsmobility 	totalTime 	380.1
scalar RSUExampleScenario.node[29].veinsmobility 	stopTime 	450
scalar RSUExampleScenario.node[29].veinsmobility 	minSpeed 	0
scalar RSUExampleScenario.node[29].veinsmobility 	maxSpeed 	13.999942497581
scalar RSUExampleScenario.node[29].veinsmobility 	totalDistance 	2133.1572833057
scalar RSUExampleScenario.node[29].veinsmobility 	totalCO2Emission 	651.95878232191
scalar RSUExampleScenario.node[3].appl 	meanClusterNodes 	3.5
scalar RSUExampleScenario.node[3].appl 	meanClusterHeadUtility 	8.8832607276084
scalar RSUExampleScenario.node[3].appl 	NumberofCH 	0.10810810810811
scalar RSUExampleScenario.node[3].appl 	NumberofON 	0.67567567567568
scalar RSUExampleScenario.node[3].appl 	NumberofFN 	0.21621621621622
scalar RSUExampleScenario.node[3].veinsmobility 	startTime 	7.3
scalar RSUExampleScenario.node[3].veinsmobility 	totalTime 	442.7
scalar RSUExampleScenario.node[3].veinsmobility 	stopTime 	450
scalar RSUExampleScenario.node[3].veinsmobility 	minSpeed 	0
scalar RSUExampleScenario.node[3].veinsmobility 	maxSpeed 	13.999951551673
scalar RSUExampleScenario.node[3].veinsmobility 	totalDistance 	2991.8681009984
scalar RSUExampleScenario.node[3].veinsmobility 	totalCO2Emission 	815.87238643108
scalar RSUExampleScenario.node[30].appl 	meanClusterNodes 	2.5
scalar RSUExampleScenario.node[30].appl 	meanClusterHeadUtility 	9.4184955640238
scalar RSUExampleScenario.node[30].appl 	NumberofCH 	0.10810810810811
scalar RSUExampleScenario.node[30].appl 	NumberofON 	0.72972972972973
scalar RSUExampleScenario.node[30].appl 	NumberofFN 	0.16216216216216
scalar RSUExampleScenario.node[30].veinsmobility 	startTime 	72.4
scalar RSUExampleScenario.node[30].veinsmobility 	totalTime 	377.6
scalar RSUExampleScenario.node[30].veinsmobility 	stopTime 	450
scalar RSUExampleScenario.node[30].veinsmobility 	minSpeed 	0
scalar RSUExampleScenario.node[30].veinsmobility 	maxSpeed 	13.99997013676
scalar RSUExampleScenario.node[30].veinsmobility 	totalDistance 	2102.4315569335
scalar RSUExampleScenario.node[30].veinsmobility 	totalCO2Emission 	640.74599928749
scalar RSUExampleScenario.node[31].appl 	meanClusterNodes 	2
scalar RSUExampleScenario.node[31].appl 	meanClusterHeadUtility 	5.1447920498163
scalar RSUExampleScenario.node[31].appl 	NumberofCH 	0.16216216216216
scalar RSUExampleScenario.node[31].appl 	NumberofON 	0.81081081081081
scalar RSUExampleScenario.node[31].appl 	NumberofFN 	0.027027027027027
scalar RSUExampleScenario.node[31].veinsmobility 	startTime 	74.8
scalar RSUExampleScenario.node[31].veinsmobility 	totalTime 	375.2
scalar RSUExampleScenario.node[31].veinsmobility 	stopTime 	450
scalar RSUExampleScenario.node[31].veinsmobility 	minSpeed 	0
scalar RSUExampleScenario.node[31].veinsmobility 	maxSpeed 	13.999940730112
scalar RSUExampleScenario.node[31].veinsmobility 	totalDistance 	2066.7836143589
scalar RSUExampleScenario.node[31].veinsmobility 	totalCO2Emission 	638.61787169437
scalar RSUExampleScenario.node[32].appl 	meanClusterNodes 	4.3333333333333
scalar RSUExampleScenario.node[32].appl 	meanClusterHeadUtility 	5.5948585239556
scalar RSUExampleScenario.node[32].appl 	NumberofCH 	0.16216216216216
scalar RSUExampleScenario.node[32].appl 	NumberofON 	0.67567567567568
scalar RSUExampleScenario.node[32].appl 	NumberofFN 	0.16216216216216
scalar RSUExampleScenario.node[32].veinsmobility 	startTime 	77.2
scalar RSUExampleScenario.node[32].veinsmobility 	totalTime 	372.8
scalar RSUExampleScenario.node[32].veinsmobility 	stopTime 	450
scalar RSUExampleScenario.node[32].veinsmobility 	minSpeed 	0
scalar RSUExampleScenario.node[32].veinsmobility 	maxSpeed 	13.999845058857
scalar RSUExampleScenario.node[32].veinsmobility 	totalDistance 	2033.6114449299
scalar RSUExampleScenario.node[32].veinsmobility 	totalCO2Emission 	633.64961121143
scalar RSUExampleScenario.node[33].appl 	meanClusterNodes 	2
scalar RSUExampleScenario.node[33].appl 	meanClusterHeadUtility 	8.9264463029444
scalar RSUExampleScenario.node[33].appl 	NumberofCH 	0.10810810810811
scalar RSUExampleScenario.node[33].appl 	NumberofON 	0.78378378378378
scalar RSUExampleScenario.node[33].appl 	NumberofFN 	0.10810810810811
scalar RSUExampleScenario.node[33].veinsmobility 	startTime 	79.6
scalar RSUExampleScenario.node[33].veinsmobility 	totalTime 	370.4
scalar RSUExampleScenario.node[33].veinsmobility 	stopTime 	450
scalar RSUExampleScenario.node[33].veinsmobility 	minSpeed 	0
scalar RSUExampleScenario.node[33].veinsmobility 	maxSpeed 	13.999913047468
scalar RSUExampleScenario.node[33].veinsmobility 	totalDistance 	2000.1466003992
scalar RSUExampleScenario.node[33].veinsmobility 	totalCO2Emission 	631.22594988942
scalar RSUExampleScenario.node[34].appl 	meanClusterNodes 	4.75
scalar RSUExampleScenario.node[34].appl 	meanClusterHeadUtility 	8.0584043358486
scalar RSUExampleScenario.node[34].appl 	NumberofCH 	0.10810810810811
scalar RSUExampleScenario.node[34].appl 	NumberofON 	0.54054054054054
scalar RSUExampleScenario.node[34].appl 	NumberofFN 	0.35135135135135
scalar RSUExampleScenario.node[34].veinsmobility 	startTime 	82
scalar RSUExampleScenario.node[34].veinsmobility 	totalTime 	368
scalar RSUExampleScenario.node[34].veinsmobility 	stopTime 	450
scalar RSUExampleScenario.node[34].veinsmobility 	minSpeed 	0
scalar RSUExampleScenario.node[34].veinsmobility 	maxSpeed 	13.999968111771
scalar RSUExampleScenario.node[34].veinsmobility 	totalDistance 	1966.0077700422
scalar RSUExampleScenario.node[34].veinsmobility 	totalCO2Emission 	621.66168102024
scalar RSUExampleScenario.node[35].appl 	meanClusterNodes 	0
scalar RSUExampleScenario.node[35].appl 	meanClusterHeadUtility 	0
scalar RSUExampleScenario.node[35].appl 	NumberofCH 	0.10810810810811
scalar RSUExampleScenario.node[35].appl 	NumberofON 	0
scalar RSUExampleScenario.node[35].appl 	NumberofFN 	0.89189189189189
scalar RSUExampleScenario.node[35].veinsmobility 	startTime 	84.4
scalar RSUExampleScenario.node[35].veinsmobility 	totalTime 	365.6
scalar RSUExampleScenario.node[35].veinsmobility 	stopTime 	450
scalar RSUExampleScenario.node[35].veinsmobility 	minSpeed 	0
scalar RSUExampleScenario.node[35].veinsmobility 	maxSpeed 	13.999898495439
scalar RSUExampleScenario.node[35].veinsmobility 	totalDistance 	1932.5518555677
scalar RSUExampleScenario.node[35].veinsmobility 	totalCO2Emission 	617.20008567955
scalar RSUExampleScenario.node[36].appl 	meanClusterNodes 	4
scalar RSUExampleScenario.node[36].appl 	meanClusterHeadUtility 	8.1052204825891
scalar RSUExampleScenario.node[36].appl 	NumberofCH 	0.10810810810811
scalar RSUExampleScenario.node[36].appl 	NumberofON 	0.35135135135135
scalar RSUExampleScenario.node[36].appl 	NumberofFN 	0.54054054054054
scalar RSUExampleScenario.node[36].veinsmobility 	startTime 	86.8
scalar RSUExampleScenario.node[36].veinsmobility 	totalTime 	363.2
scalar RSUExampleScenario.node[36].veinsmobility 	stopTime 	450
scalar RSUExampleScenario.node[36].veinsmobility 	minSpeed 	0
scalar RSUExampleScenario.node[36].veinsmobility 	maxSpeed 	13.999937563869
scalar RSUExampleScenario.node[36].veinsmobility 	totalDistance 	1900.1179703225
scalar RSUExampleScenario.node[36].veinsmobility 	totalCO2Emission 	612.21010783073
scalar RSUExampleScenario.node[37].appl 	meanClusterNodes 	3.3333333333333
scalar RSUExampleScenario.node[37].appl 	meanClusterHeadUtility 	11.360262524976
scalar RSUExampleScenario.node[37].appl 	NumberofCH 	0.081081081081081
scalar RSUExampleScenario.node[37].appl 	NumberofON 	0.83783783783784
scalar RSUExampleScenario.node[37].appl 	NumberofFN 	0.081081081081081
scalar RSUExampleScenario.node[37].veinsmobility 	startTime 	89.2
scalar RSUExampleScenario.node[37].veinsmobility 	totalTime 	360.8
scalar RSUExampleScenario.node[37].veinsmobility 	stopTime 	450
scalar RSUExampleScenario.node[37].veinsmobility 	minSpeed 	0
scalar RSUExampleScenario.node[37].veinsmobility 	maxSpeed 	13.999921036067
scalar RSUExampleScenario.node[37].veinsmobility 	totalDistance 	1864.585828374
scalar RSUExampleScenario.node[37].veinsmobility 	totalCO2Emission 	605.08501312564
scalar RSUExampleScenario.node[38].appl 	meanClusterNodes 	4
scalar RSUExampleScenario.node[38].appl 	meanClusterHeadUtility 	5.4438388099722
scalar RSUExampleScenario.node[38].appl 	NumberofCH 	0.16216216216216
scalar RSUExampleScenario.node[38].appl 	NumberofON 	0.64864864864865
scalar RSUExampleScenario.node[38].appl 	NumberofFN 	0.18918918918919
scalar RSUExampleScenario.node[38].veinsmobility 	startTime 	91.6
scalar RSUExampleScenario.node[38].veinsmobility 	totalTime 	358.4
scalar RSUExampleScenario.node[38].veinsmobility 	stopTime 	450
scalar RSUExampleScenario.node[38].veinsmobility 	minSpeed 	0
scalar RSUExampleScenario.node[38].veinsmobility 	maxSpeed 	13.999970308864
scalar RSUExampleScenario.node[38].veinsmobility 	totalDistance 	1831.2585495337
scalar RSUExampleScenario.node[38].veinsmobility 	totalCO2Emission 	597.44393764237
scalar RSUExampleScenario.node[39].appl 	meanClusterNodes 	5.3333333333333
scalar RSUExampleScenario.node[39].appl 	meanClusterHeadUtility 	5.5547058841639
scalar RSUExampleScenario.node[39].appl 	NumberofCH 	0.16216216216216
scalar RSUExampleScenario.node[39].appl 	NumberofON 	0.37837837837838
scalar RSUExampleScenario.node[39].appl 	NumberofFN 	0.45945945945946
scalar RSUExampleScenario.node[39].veinsmobility 	startTime 	94
scalar RSUExampleScenario.node[39].veinsmobility 	totalTime 	356
scalar RSUExampleScenario.node[39].veinsmobility 	stopTime 	450
scalar RSUExampleScenario.node[39].veinsmobility 	minSpeed 	0
scalar RSUExampleScenario.node[39].veinsmobility 	maxSpeed 	13.999990816754
scalar RSUExampleScenario.node[39].veinsmobility 	totalDistance 	1798.2251204029
scalar RSUExampleScenario.node[39].veinsmobility 	totalCO2Emission 	595.81683849124
scalar RSUExampleScenario.node[4].appl 	meanClusterNodes 	4.5
scalar RSUExampleScenario.node[4].appl 	meanClusterHeadUtility 	7.8752744486831
scalar RSUExampleScenario.node[4].appl 	NumberofCH 	0.10810810810811
scalar RSUExampleScenario.node[4].appl 	NumberofON 	0.51351351351351
scalar RSUExampleScenario.node[4].appl 	NumberofFN 	0.37837837837838
scalar RSUExampleScenario.node[4].veinsmobility 	startTime 	9.7
scalar RSUExampleScenario.node[4].veinsmobility 	totalTime 	440.3
scalar RSUExampleScenario.node[4].veinsmobility 	stopTime 	450
scalar RSUExampleScenario.node[4].veinsmobility 	minSpeed 	0
scalar RSUExampleScenario.node[4].veinsmobility 	maxSpeed 	13.999741296365
scalar RSUExampleScenario.node[4].veinsmobility 	totalDistance 	2948.889894302
scalar RSUExampleScenario.node[4].veinsmobility 	totalCO2Emission 	799.28960390142
scalar RSUExampleScenario.node[40].appl 	meanClusterNodes 	6.25
scalar RSUExampleScenario.node[40].appl 	meanClusterHeadUtility 	8.1237652565636
scalar RSUExampleScenario.node[40].appl 	NumberofCH 	0.10810810810811
scalar RSUExampleScenario.node[40].appl 	NumberofON 	0.45945945945946
scalar RSUExampleScenario.node[40].appl 	NumberofFN 	0.43243243243243
scalar RSUExampleScenario.node[40].veinsmobility 	startTime 	96.5
scalar RSUExampleScenario.node[40].veinsmobility 	totalTime 	353.5
scalar RSUExampleScenario.node[40].veinsmobility 	stopTime 	450
scalar RSUExampleScenario.node[40].veinsmobility 	minSpeed 	0
scalar RSUExampleScenario.node[40].veinsmobility 	maxSpeed 	13.999874934962
scalar RSUExampleScenario.node[40].veinsmobility 	totalDistance 	1763.5849265626
scalar RSUExampleScenario.node[40].veinsmobility 	totalCO2Emission 	585.24417633271
scalar RSUExampleScenario.node[41].appl 	meanClusterNodes 	5.6666666666667
scalar RSUExampleScenario.node[41].appl 	meanClusterHeadUtility 	5.646276783729
scalar RSUExampleScenario.node[41].appl 	NumberofCH 	0.16216216216216
scalar RSUExampleScenario.node[41].appl 	NumberofON 	0.62162162162162
scalar RSUExampleScenario.node[41].appl 	NumberofFN 	0.21621621621622
scalar RSUExampleScenario.node[41].veinsmobility 	startTime 	98.9
scalar RSUExampleScenario.node[41].veinsmobility 	totalTime 	351.1
scalar RSUExampleScenario.node[41].veinsmobility 	stopTime 	450
scalar RSUExampleScenario.node[41].veinsmobility 	minSpeed 	0
scalar RSUExampleScenario.node[41].veinsmobility 	maxSpeed 	13.999988851151
scalar RSUExampleScenario.node[41].veinsmobility 	totalDistance 	1730.9291543893
scalar RSUExampleScenario.node[41].veinsmobility 	totalCO2Emission 	581.33214773641
scalar RSUExampleScenario.node[42].appl 	meanClusterNodes 	2.6
scalar RSUExampleScenario.node[42].appl 	meanClusterHeadUtility 	6.8515368584399
scalar RSUExampleScenario.node[42].appl 	NumberofCH 	0.13513513513514
scalar RSUExampleScenario.node[42].appl 	NumberofON 	0.54054054054054
scalar RSUExampleScenario.node[42].appl 	NumberofFN 	0.32432432432432
scalar RSUExampleScenario.node[42].veinsmobility 	startTime 	101.3
scalar RSUExampleScenario.node[42].veinsmobility 	totalTime 	348.7
scalar RSUExampleScenario.node[42].veinsmobility 	stopTime 	450
scalar RSUExampleScenario.node[42].veinsmobility 	minSpeed 	0
scalar RSUExampleScenario.node[42].veinsmobility 	maxSpeed 	13.999812953698
scalar RSUExampleScenario.node[42].veinsmobility 	totalDistance 	1696.6630465866
scalar RSUExampleScenario.node[42].veinsmobility 	totalCO2Emission 	574.90925357005
scalar RSUExampleScenario.node[43].appl 	meanClusterNodes 	4.5
scalar RSUExampleScenario.node[43].appl 	meanClusterHeadUtility 	7.9354923755042
scalar RSUExampleScenario.node[43].appl 	NumberofCH 	0.10810810810811
scalar RSUExampleScenario.node[43].appl 	NumberofON 	0.45945945945946
scalar RSUExampleScenario.node[43].appl 	NumberofFN 	0.43243243243243
scalar RSUExampleScenario.node[43].veinsmobility 	startTime 	103.7
scalar RSUExampleScenario.node[43].veinsmobility 	totalTime 	346.3
scalar RSUExampleScenario.node[43].veinsmobility 	stopTime 	450
scalar RSUExampleScenario.node[43].veinsmobility 	minSpeed 	0
scalar RSUExampleScenario.node[43].veinsmobility 	maxSpeed 	13.999958335818
scalar RSUExampleScenario.node[43].veinsmobility 	totalDistance 	1663.5640504418
scalar RSUExampleScenario.node[43].veinsmobility 	totalCO2Emission 	569.69263956011
scalar RSUExampleScenario.node[44].appl 	meanClusterNodes 	4
scalar RSUExampleScenario.node[44].appl 	meanClusterHeadUtility 	8.1456173550091
scalar RSUExampleScenario.node[44].appl 	NumberofCH 	0.10810810810811
scalar RSUExampleScenario.node[44].appl 	NumberofON 	0.78378378378378
scalar RSUExampleScenario.node[44].appl 	NumberofFN 	0.10810810810811
scalar RSUExampleScenario.node[44].veinsmobility 	startTime 	106.1
scalar RSUExampleScenario.node[44].veinsmobility 	totalTime 	343.9
scalar RSUExampleScenario.node[44].veinsmobility 	stopTime 	450
scalar RSUExampleScenario.node[44].veinsmobility 	minSpeed 	0
scalar RSUExampleScenario.node[44].veinsmobility 	maxSpeed 	13.999892136469
scalar RSUExampleScenario.node[44].veinsmobility 	totalDistance 	1629.5633049318
scalar RSUExampleScenario.node[44].veinsmobility 	totalCO2Emission 	564.63417400459
scalar RSUExampleScenario.node[45].appl 	meanClusterNodes 	7
scalar RSUExampleScenario.node[45].appl 	meanClusterHeadUtility 	8.5810460611642
scalar RSUExampleScenario.node[45].appl 	NumberofCH 	0.10810810810811
scalar RSUExampleScenario.node[45].appl 	NumberofON 	0.45945945945946
scalar RSUExampleScenario.node[45].appl 	NumberofFN 	0.43243243243243
scalar RSUExampleScenario.node[45].veinsmobility 	startTime 	108.5
scalar RSUExampleScenario.node[45].veinsmobility 	totalTime 	341.5
scalar RSUExampleScenario.node[45].veinsmobility 	stopTime 	450
scalar RSUExampleScenario.node[45].veinsmobility 	minSpeed 	0
scalar RSUExampleScenario.node[45].veinsmobility 	maxSpeed 	13.999865134673
scalar RSUExampleScenario.node[45].veinsmobility 	totalDistance 	1597.4744071627
scalar RSUExampleScenario.node[45].veinsmobility 	totalCO2Emission 	557.75779267895
scalar RSUExampleScenario.node[46].appl 	meanClusterNodes 	2
scalar RSUExampleScenario.node[46].appl 	meanClusterHeadUtility 	8.2334293902073
scalar RSUExampleScenario.node[46].appl 	NumberofCH 	0.10810810810811
scalar RSUExampleScenario.node[46].appl 	NumberofON 	0.75675675675676
scalar RSUExampleScenario.node[46].appl 	NumberofFN 	0.13513513513514
scalar RSUExampleScenario.node[46].veinsmobility 	startTime 	110.9
scalar RSUExampleScenario.node[46].veinsmobility 	totalTime 	339.1
scalar RSUExampleScenario.node[46].veinsmobility 	stopTime 	450
scalar RSUExampleScenario.node[46].veinsmobility 	minSpeed 	0
scalar RSUExampleScenario.node[46].veinsmobility 	maxSpeed 	13.999843787632
scalar RSUExampleScenario.node[46].veinsmobility 	totalDistance 	1563.3664241503
scalar RSUExampleScenario.node[46].veinsmobility 	totalCO2Emission 	555.52162686163
scalar RSUExampleScenario.node[47].appl 	meanClusterNodes 	2.8
scalar RSUExampleScenario.node[47].appl 	meanClusterHeadUtility 	6.7431855267656
scalar RSUExampleScenario.node[47].appl 	NumberofCH 	0.13513513513514
scalar RSUExampleScenario.node[47].appl 	NumberofON 	0.54054054054054
scalar RSUExampleScenario.node[47].appl 	NumberofFN 	0.32432432432432
scalar RSUExampleScenario.node[47].veinsmobility 	startTime 	113.3
scalar RSUExampleScenario.node[47].veinsmobility 	totalTime 	336.7
scalar RSUExampleScenario.node[47].veinsmobility 	stopTime 	450
scalar RSUExampleScenario.node[47].veinsmobility 	minSpeed 	0
scalar RSUExampleScenario.node[47].veinsmobility 	maxSpeed 	13.999960904026
scalar RSUExampleScenario.node[47].veinsmobility 	totalDistance 	1529.4009708656
scalar RSUExampleScenario.node[47].veinsmobility 	totalCO2Emission 	547.81631002653
scalar RSUExampleScenario.node[48].appl 	meanClusterNodes 	3.5
scalar RSUExampleScenario.node[48].appl 	meanClusterHeadUtility 	9.0124042366619
scalar RSUExampleScenario.node[48].appl 	NumberofCH 	0.10810810810811
scalar RSUExampleScenario.node[48].appl 	NumberofON 	0.37837837837838
scalar RSUExampleScenario.node[48].appl 	NumberofFN 	0.51351351351351
scalar RSUExampleScenario.node[48].veinsmobility 	startTime 	115.7
scalar RSUExampleScenario.node[48].veinsmobility 	totalTime 	334.3
scalar RSUExampleScenario.node[48].veinsmobility 	stopTime 	450
scalar RSUExampleScenario.node[48].veinsmobility 	minSpeed 	0
scalar RSUExampleScenario.node[48].veinsmobility 	maxSpeed 	13.999640248003
scalar RSUExampleScenario.node[48].veinsmobility 	totalDistance 	1495.859909081
scalar RSUExampleScenario.node[48].veinsmobility 	totalCO2Emission 	541.85598063437
scalar RSUExampleScenario.node[49].appl 	meanClusterNodes 	2.5
scalar RSUExampleScenario.node[49].appl 	meanClusterHeadUtility 	7.737948328257
scalar RSUExampleScenario.node[49].appl 	NumberofCH 	0.10810810810811
scalar RSUExampleScenario.node[49].appl 	NumberofON 	0.86486486486486
scalar RSUExampleScenario.node[49].appl 	NumberofFN 	0.027027027027027
scalar RSUExampleScenario.node[49].veinsmobility 	startTime 	118.1
scalar RSUExampleScenario.node[49].veinsmobility 	totalTime 	331.9
scalar RSUExampleScenario.node[49].veinsmobility 	stopTime 	450
scalar RSUExampleScenario.node[49].veinsmobility 	minSpeed 	0
scalar RSUExampleScenario.node[49].veinsmobility 	maxSpeed 	13.999494338706
scalar RSUExampleScenario.node[49].veinsmobility 	totalDistance 	1462.9040050982
scalar RSUExampleScenario.node[49].veinsmobility 	totalCO2Emission 	536.86561717179
scalar RSUExampleScenario.node[5].appl 	meanClusterNodes 	4.25
scalar RSUExampleScenario.node[5].appl 	meanClusterHeadUtility 	8.7010691803675
scalar RSUExampleScenario.node[5].appl 	NumberofCH 	0.10810810810811
scalar RSUExampleScenario.node[5].appl 	NumberofON 	0.2972972972973
scalar RSUExampleScenario.node[5].appl 	NumberofFN 	0.59459459459459
scalar RSUExampleScenario.node[5].veinsmobility 	startTime 	12.1
scalar RSUExampleScenario.node[5].veinsmobility 	totalTime 	437.9
scalar RSUExampleScenario.node[5].veinsmobility 	stopTime 	450
scalar RSUExampleScenario.node[5].veinsmobility 	minSpeed 	0
scalar RSUExampleScenario.node[5].veinsmobility 	maxSpeed 	13.999992463756
scalar RSUExampleScenario.node[5].veinsmobility 	totalDistance 	2913.8930163563
scalar RSUExampleScenario.node[5].veinsmobility 	totalCO2Emission 	784.74881865953
scalar RSUExampleScenario.node[50].appl 	meanClusterNodes 	6.25
scalar RSUExampleScenario.node[50].appl 	meanClusterHeadUtility 	8.2940904607298
scalar RSUExampleScenario.node[50].appl 	NumberofCH 	0.10810810810811
scalar RSUExampleScenario.node[50].appl 	NumberofON 	0.37837837837838
scalar RSUExampleScenario.node[50].appl 	NumberofFN 	0.51351351351351
scalar RSUExampleScenario.node[50].veinsmobility 	startTime 	120.6
scalar RSUExampleScenario.node[50].veinsmobility 	totalTime 	329.4
scalar RSUExampleScenario.node[50].veinsmobility 	stopTime 	450
scalar RSUExampleScenario.node[50].veinsmobility 	minSpeed 	0
scalar RSUExampleScenario.node[50].veinsmobility 	maxSpeed 	13.999752844176
scalar RSUExampleScenario.node[50].veinsmobility 	totalDistance 	1429.3169999265
scalar RSUExampleScenario.node[50].veinsmobility 	totalCO2Emission 	534.37216887897
scalar RSUExampleScenario.node[51].appl 	meanClusterNodes 	2.3333333333333
scalar RSUExampleScenario.node[51].appl 	meanClusterHeadUtility 	6.1047393609485
scalar RSUExampleScenario.node[51].appl 	NumberofCH 	0.16216216216216
scalar RSUExampleScenario.node[51].appl 	NumberofON 	0.43243243243243
scalar RSUExampleScenario.node[51].appl 	NumberofFN 	0.40540540540541
scalar RSUExampleScenario.node[51].veinsmobility 	startTime 	123
scalar RSUExampleScenario.node[51].veinsmobility 	totalTime 	327
scalar RSUExampleScenario.node[51].veinsmobility 	stopTime 	450
scalar RSUExampleScenario.node[51].veinsmobility 	minSpeed 	0
scalar RSUExampleScenario.node[51].veinsmobility 	maxSpeed 	13.99973007451
scalar RSUExampleScenario.node[51].veinsmobility 	totalDistance 	1394.1829913606
scalar RSUExampleScenario.node[51].veinsmobility 	totalCO2Emission 	523.69288769249
scalar RSUExampleScenario.node[52].appl 	meanClusterNodes 	3
scalar RSUExampleScenario.node[52].appl 	meanClusterHeadUtility 	5.333157093918
scalar RSUExampleScenario.node[52].appl 	NumberofCH 	0.16216216216216
scalar RSUExampleScenario.node[52].appl 	NumberofON 	0.59459459459459
scalar RSUExampleScenario.node[52].appl 	NumberofFN 	0.24324324324324
scalar RSUExampleScenario.node[52].veinsmobility 	startTime 	125.4
scalar RSUExampleScenario.node[52].veinsmobility 	totalTime 	324.6
scalar RSUExampleScenario.node[52].veinsmobility 	stopTime 	450
scalar RSUExampleScenario.node[52].veinsmobility 	minSpeed 	0
scalar RSUExampleScenario.node[52].veinsmobility 	maxSpeed 	13.999999156431
scalar RSUExampleScenario.node[52].veinsmobility 	totalDistance 	1361.0152891639
scalar RSUExampleScenario.node[52].veinsmobility 	totalCO2Emission 	520.54439170996
scalar RSUExampleScenario.node[53].appl 	meanClusterNodes 	5.8
scalar RSUExampleScenario.node[53].appl 	meanClusterHeadUtility 	6.572604632617
scalar RSUExampleScenario.node[53].appl 	NumberofCH 	0.13513513513514
scalar RSUExampleScenario.node[53].appl 	NumberofON 	0.7027027027027
scalar RSUExampleScenario.node[53].appl 	NumberofFN 	0.16216216216216
scalar RSUExampleScenario.node[53].veinsmobility 	startTime 	127.8
scalar RSUExampleScenario.node[53].veinsmobility 	totalTime 	322.2
scalar RSUExampleScenario.node[53].veinsmobility 	stopTime 	450
scalar RSUExampleScenario.node[53].veinsmobility 	minSpeed 	0
scalar RSUExampleScenario.node[53].veinsmobility 	maxSpeed 	13.99954982325
scalar RSUExampleScenario.node[53].veinsmobility 	totalDistance 	1328.2000227451
scalar RSUExampleScenario.node[53].veinsmobility 	totalCO2Emission 	513.04574563386
scalar RSUExampleScenario.node[54].appl 	meanClusterNodes 	2.5
scalar RSUExampleScenario.node[54].appl 	meanClusterHeadUtility 	7.9577552710542
scalar RSUExampleScenario.node[54].appl 	NumberofCH 	0.10810810810811
scalar RSUExampleScenario.node[54].appl 	NumberofON 	0.78378378378378
scalar RSUExampleScenario.node[54].appl 	NumberofFN 	0.10810810810811
scalar RSUExampleScenario.node[54].veinsmobility 	startTime 	130.2
scalar RSUExampleScenario.node[54].veinsmobility 	totalTime 	319.8
scalar RSUExampleScenario.node[54].veinsmobility 	stopTime 	450
scalar RSUExampleScenario.node[54].veinsmobility 	minSpeed 	0
scalar RSUExampleScenario.node[54].veinsmobility 	maxSpeed 	13.999395874231
scalar RSUExampleScenario.node[54].veinsmobility 	totalDistance 	1294.0523689757
scalar RSUExampleScenario.node[54].veinsmobility 	totalCO2Emission 	506.4059211322
scalar RSUExampleScenario.node[55].appl 	meanClusterNodes 	6
scalar RSUExampleScenario.node[55].appl 	meanClusterHeadUtility 	5.5225499863823
scalar RSUExampleScenario.node[55].appl 	NumberofCH 	0.16216216216216
scalar RSUExampleScenario.node[55].appl 	NumberofON 	0.35135135135135
scalar RSUExampleScenario.node[55].appl 	NumberofFN 	0.48648648648649
scalar RSUExampleScenario.node[55].veinsmobility 	startTime 	132.6
scalar RSUExampleScenario.node[55].veinsmobility 	totalTime 	317.4
scalar RSUExampleScenario.node[55].veinsmobility 	stopTime 	450
scalar RSUExampleScenario.node[55].veinsmobility 	minSpeed 	0
scalar RSUExampleScenario.node[55].veinsmobility 	maxSpeed 	13.999795406682
scalar RSUExampleScenario.node[55].veinsmobility 	totalDistance 	1259.6094705969
scalar RSUExampleScenario.node[55].veinsmobility 	totalCO2Emission 	504.65937243204
scalar RSUExampleScenario.node[56].appl 	meanClusterNodes 	4.25
scalar RSUExampleScenario.node[56].appl 	meanClusterHeadUtility 	7.7335188741265
scalar RSUExampleScenario.node[56].appl 	NumberofCH 	0.10810810810811
scalar RSUExampleScenario.node[56].appl 	NumberofON 	0.40540540540541
scalar RSUExampleScenario.node[56].appl 	NumberofFN 	0.48648648648649
scalar RSUExampleScenario.node[56].veinsmobility 	startTime 	135
scalar RSUExampleScenario.node[56].veinsmobility 	totalTime 	315
scalar RSUExampleScenario.node[56].veinsmobility 	stopTime 	450
scalar RSUExampleScenario.node[56].veinsmobility 	minSpeed 	0
scalar RSUExampleScenario.node[56].veinsmobility 	maxSpeed 	13.999943790326
scalar RSUExampleScenario.node[56].veinsmobility 	totalDistance 	1225.4367277121
scalar RSUExampleScenario.node[56].veinsmobility 	totalCO2Emission 	495.44962294267
scalar RSUExampleScenario.node[57].appl 	meanClusterNodes 	2.25
scalar RSUExampleScenario.node[57].appl 	meanClusterHeadUtility 	8.4224840897012
scalar RSUExampleScenario.node[57].appl 	NumberofCH 	0.10810810810811
scalar RSUExampleScenario.node[57].appl 	NumberofON 	0.83783783783784
scalar RSUExampleScenario.node[57].appl 	NumberofFN 	0.054054054054054
scalar RSUExampleScenario.node[57].veinsmobility 	startTime 	137.4
scalar RSUExampleScenario.node[57].veinsmobility 	totalTime 	312.6
scalar RSUExampleScenario.node[57].veinsmobility 	stopTime 	450
scalar RSUExampleScenario.node[57].veinsmobility 	minSpeed 	0
scalar RSUExampleScenario.node[57].veinsmobility 	maxSpeed 	13.99976456509
scalar RSUExampleScenario.node[57].veinsmobility 	totalDistance 	1193.5071217771
scalar RSUExampleScenario.node[57].veinsmobility 	totalCO2Emission 	492.00240578655
scalar RSUExampleScenario.node[58].appl 	meanClusterNodes 	4.6666666666667
scalar RSUExampleScenario.node[58].appl 	meanClusterHeadUtility 	5.9786769562158
scalar RSUExampleScenario.node[58].appl 	NumberofCH 	0.16216216216216
scalar RSUExampleScenario.node[58].appl 	NumberofON 	0.78378378378378
scalar RSUExampleScenario.node[58].appl 	NumberofFN 	0.054054054054054
scalar RSUExampleScenario.node[58].veinsmobility 	startTime 	139.8
scalar RSUExampleScenario.node[58].veinsmobility 	totalTime 	310.2
scalar RSUExampleScenario.node[58].veinsmobility 	stopTime 	450
scalar RSUExampleScenario.node[58].veinsmobility 	minSpeed 	0
scalar RSUExampleScenario.node[58].veinsmobility 	maxSpeed 	13.999858973776
scalar RSUExampleScenario.node[58].veinsmobility 	totalDistance 	1159.3170265999
scalar RSUExampleScenario.node[58].veinsmobility 	totalCO2Emission 	487.13478153304
scalar RSUExampleScenario.node[59].appl 	meanClusterNodes 	7.75
scalar RSUExampleScenario.node[59].appl 	meanClusterHeadUtility 	8.3811596121895
scalar RSUExampleScenario.node[59].appl 	NumberofCH 	0.10810810810811
scalar RSUExampleScenario.node[59].appl 	NumberofON 	0.51351351351351
scalar RSUExampleScenario.node[59].appl 	NumberofFN 	0.37837837837838
scalar RSUExampleScenario.node[59].veinsmobility 	startTime 	142.2
scalar RSUExampleScenario.node[59].veinsmobility 	totalTime 	307.8
scalar RSUExampleScenario.node[59].veinsmobility 	stopTime 	450
scalar RSUExampleScenario.node[59].veinsmobility 	minSpeed 	0
scalar RSUExampleScenario.node[59].veinsmobility 	maxSpeed 	13.999442166993
scalar RSUExampleScenario.node[59].veinsmobility 	totalDistance 	1126.1221906092
scalar RSUExampleScenario.node[59].veinsmobility 	totalCO2Emission 	479.62959675042
scalar RSUExampleScenario.node[6].appl 	meanClusterNodes 	5.5
scalar RSUExampleScenario.node[6].appl 	meanClusterHeadUtility 	9.4648511080778
scalar RSUExampleScenario.node[6].appl 	NumberofCH 	0.10810810810811
scalar RSUExampleScenario.node[6].appl 	NumberofON 	0.43243243243243
scalar RSUExampleScenario.node[6].appl 	NumberofFN 	0.45945945945946
scalar RSUExampleScenario.node[6].veinsmobility 	startTime 	14.5
scalar RSUExampleScenario.node[6].veinsmobility 	totalTime 	435.5
scalar RSUExampleScenario.node[6].veinsmobility 	stopTime 	450
scalar RSUExampleScenario.node[6].veinsmobility 	minSpeed 	0
scalar RSUExampleScenario.node[6].veinsmobility 	maxSpeed 	13.999976196652
scalar RSUExampleScenario.node[6].veinsmobility 	totalDistance 	2905.5420575583
scalar RSUExampleScenario.node[6].veinsmobility 	totalCO2Emission 	776.2927055759
scalar RSUExampleScenario.node[60].appl 	meanClusterNodes 	4.25
scalar RSUExampleScenario.node[60].appl 	meanClusterHeadUtility 	8.8190581422012
scalar RSUExampleScenario.node[60].appl 	NumberofCH 	0.10810810810811
scalar RSUExampleScenario.node[60].appl 	NumberofON 	0.67567567567568
scalar RSUExampleScenario.node[60].appl 	NumberofFN 	0.21621621621622
scalar RSUExampleScenario.node[60].veinsmobility 	startTime 	144.7
scalar RSUExampleScenario.node[60].veinsmobility 	totalTime 	305.3
scalar RSUExampleScenario.node[60].veinsmobility 	stopTime 	450
scalar RSUExampleScenario.node[60].veinsmobility 	minSpeed 	0
scalar RSUExampleScenario.node[60].veinsmobility 	maxSpeed 	13.999593642966
scalar RSUExampleScenario.node[60].veinsmobility 	totalDistance 	1093.0565611137
scalar RSUExampleScenario.node[60].veinsmobility 	totalCO2Emission 	473.68602316917
scalar RSUExampleScenario.node[61].appl 	meanClusterNodes 	3.1666666666667
scalar RSUExampleScenario.node[61].appl 	meanClusterHeadUtility 	5.642735827492
scalar RSUExampleScenario.node[61].appl 	NumberofCH 	0.16216216216216
scalar RSUExampleScenario.node[61].appl 	NumberofON 	0.64864864864865
scalar RSUExampleScenario.node[61].appl 	NumberofFN 	0.18918918918919
scalar RSUExampleScenario.node[61].veinsmobility 	startTime 	147.1
scalar RSUExampleScenario.node[61].veinsmobility 	totalTime 	302.9
scalar RSUExampleScenario.node[61].veinsmobility 	stopTime 	450
scalar RSUExampleScenario.node[61].veinsmobility 	minSpeed 	0
scalar RSUExampleScenario.node[61].veinsmobility 	maxSpeed 	13.999961516589
scalar RSUExampleScenario.node[61].veinsmobility 	totalDistance 	1058.8194475548
scalar RSUExampleScenario.node[61].veinsmobility 	totalCO2Emission 	468.24842275439
scalar RSUExampleScenario.node[62].appl 	meanClusterNodes 	2
scalar RSUExampleScenario.node[62].appl 	meanClusterHeadUtility 	8.4969403648223
scalar RSUExampleScenario.node[62].appl 	NumberofCH 	0.10810810810811
scalar RSUExampleScenario.node[62].appl 	NumberofON 	0.75675675675676
scalar RSUExampleScenario.node[62].appl 	NumberofFN 	0.13513513513514
scalar RSUExampleScenario.node[62].veinsmobility 	startTime 	149.5
scalar RSUExampleScenario.node[62].veinsmobility 	totalTime 	300.5
scalar RSUExampleScenario.node[62].veinsmobility 	stopTime 	450
scalar RSUExampleScenario.node[62].veinsmobility 	minSpeed 	0
scalar RSUExampleScenario.node[62].veinsmobility 	maxSpeed 	13.99972590219
scalar RSUExampleScenario.node[62].veinsmobility 	totalDistance 	1025.2491292603
scalar RSUExampleScenario.node[62].veinsmobility 	totalCO2Emission 	463.14117960775
scalar RSUExampleScenario.node[63].appl 	meanClusterNodes 	3.75
scalar RSUExampleScenario.node[63].appl 	meanClusterHeadUtility 	8.3206759303302
scalar RSUExampleScenario.node[63].appl 	NumberofCH 	0.10810810810811
scalar RSUExampleScenario.node[63].appl 	NumberofON 	0.54054054054054
scalar RSUExampleScenario.node[63].appl 	NumberofFN 	0.35135135135135
scalar RSUExampleScenario.node[63].veinsmobility 	startTime 	151.9
scalar RSUExampleScenario.node[63].veinsmobility 	totalTime 	298.1
scalar RSUExampleScenario.node[63].veinsmobility 	stopTime 	450
scalar RSUExampleScenario.node[63].veinsmobility 	minSpeed 	0
scalar RSUExampleScenario.node[63].veinsmobility 	maxSpeed 	13.999856045712
scalar RSUExampleScenario.node[63].veinsmobility 	totalDistance 	989.18221191841
scalar RSUExampleScenario.node[63].veinsmobility 	totalCO2Emission 	451.56058510028
scalar RSUExampleScenario.node[64].appl 	meanClusterNodes 	7.75
scalar RSUExampleScenario.node[64].appl 	meanClusterHeadUtility 	8.7868491904577
scalar RSUExampleScenario.node[64].appl 	NumberofCH 	0.10810810810811
scalar RSUExampleScenario.node[64].appl 	NumberofON 	0.72972972972973
scalar RSUExampleScenario.node[64].appl 	NumberofFN 	0.16216216216216
scalar RSUExampleScenario.node[64].veinsmobility 	startTime 	154.3
scalar RSUExampleScenario.node[64].veinsmobility 	totalTime 	295.7
scalar RSUExampleScenario.node[64].veinsmobility 	stopTime 	450
scalar RSUExampleScenario.node[64].veinsmobility 	minSpeed 	0
scalar RSUExampleScenario.node[64].veinsmobility 	maxSpeed 	13.999632969128
scalar RSUExampleScenario.node[64].veinsmobility 	totalDistance 	954.63210068803
scalar RSUExampleScenario.node[64].veinsmobility 	totalCO2Emission 	434.79545820133
scalar RSUExampleScenario.node[65].appl 	meanClusterNodes 	3
scalar RSUExampleScenario.node[65].appl 	meanClusterHeadUtility 	8.7908187145384
scalar RSUExampleScenario.node[65].appl 	NumberofCH 	0.10810810810811
scalar RSUExampleScenario.node[65].appl 	NumberofON 	0.64864864864865
scalar RSUExampleScenario.node[65].appl 	NumberofFN 	0.24324324324324
scalar RSUExampleScenario.node[65].veinsmobility 	startTime 	156.7
scalar RSUExampleScenario.node[65].veinsmobility 	totalTime 	293.3
scalar RSUExampleScenario.node[65].veinsmobility 	stopTime 	450
scalar RSUExampleScenario.node[65].veinsmobility 	minSpeed 	0
scalar RSUExampleScenario.node[65].veinsmobility 	maxSpeed 	13.999795857978
scalar RSUExampleScenario.node[65].veinsmobility 	totalDistance 	940.6728229378
scalar RSUExampleScenario.node[65].veinsmobility 	totalCO2Emission 	429.38904734808
scalar RSUExampleScenario.node[66].appl 	meanClusterNodes 	4.75
scalar RSUExampleScenario.node[66].appl 	meanClusterHeadUtility 	8.2674318205738
scalar RSUExampleScenario.node[66].appl 	NumberofCH 	0.10810810810811
scalar RSUExampleScenario.node[66].appl 	NumberofON 	0.72972972972973
scalar RSUExampleScenario.node[66].appl 	NumberofFN 	0.16216216216216
scalar RSUExampleScenario.node[66].veinsmobility 	startTime 	159.1
scalar RSUExampleScenario.node[66].veinsmobility 	totalTime 	290.9
scalar RSUExampleScenario.node[66].veinsmobility 	stopTime 	450
scalar RSUExampleScenario.node[66].veinsmobility 	minSpeed 	0
scalar RSUExampleScenario.node[66].veinsmobility 	maxSpeed 	13.999339888177
scalar RSUExampleScenario.node[66].veinsmobility 	totalDistance 	928.51019312198
scalar RSUExampleScenario.node[66].veinsmobility 	totalCO2Emission 	424.02293249986
scalar RSUExampleScenario.node[67].appl 	meanClusterNodes 	3.1666666666667
scalar RSUExampleScenario.node[67].appl 	meanClusterHeadUtility 	5.7833486517791
scalar RSUExampleScenario.node[67].appl 	NumberofCH 	0.16216216216216
scalar RSUExampleScenario.node[67].appl 	NumberofON 	0.48648648648649
scalar RSUExampleScenario.node[67].appl 	NumberofFN 	0.35135135135135
scalar RSUExampleScenario.node[67].veinsmobility 	startTime 	161.5
scalar RSUExampleScenario.node[67].veinsmobility 	totalTime 	288.5
scalar RSUExampleScenario.node[67].veinsmobility 	stopTime 	450
scalar RSUExampleScenario.node[67].veinsmobility 	minSpeed 	0
scalar RSUExampleScenario.node[67].veinsmobility 	maxSpeed 	13.999716830784
scalar RSUExampleScenario.node[67].veinsmobility 	totalDistance 	913.71114064603
scalar RSUExampleScenario.node[67].veinsmobility 	totalCO2Emission 	421.07699121388
scalar RSUExampleScenario.node[68].appl 	meanClusterNodes 	1.6666666666667
scalar RSUExampleScenario.node[68].appl 	meanClusterHeadUtility 	5.981443477106
scalar RSUExampleScenario.node[68].appl 	NumberofCH 	0.16216216216216
scalar RSUExampleScenario.node[68].appl 	NumberofON 	0.35135135135135
scalar RSUExampleScenario.node[68].appl 	NumberofFN 	0.48648648648649
scalar RSUExampleScenario.node[68].veinsmobility 	startTime 	163.9
scalar RSUExampleScenario.node[68].veinsmobility 	totalTime 	286.1
scalar RSUExampleScenario.node[68].veinsmobility 	stopTime 	450
scalar RSUExampleScenario.node[68].veinsmobility 	minSpeed 	0
scalar RSUExampleScenario.node[68].veinsmobility 	maxSpeed 	13.999534741561
scalar RSUExampleScenario.node[68].veinsmobility 	totalDistance 	893.18080784171
scalar RSUExampleScenario.node[68].veinsmobility 	totalCO2Emission 	419.50696004359
scalar RSUExampleScenario.node[69].appl 	meanClusterNodes 	5.4
scalar RSUExampleScenario.node[69].appl 	meanClusterHeadUtility 	7.2663846919813
scalar RSUExampleScenario.node[69].appl 	NumberofCH 	0.13513513513514
scalar RSUExampleScenario.node[69].appl 	NumberofON 	0.54054054054054
scalar RSUExampleScenario.node[69].appl 	NumberofFN 	0.32432432432432
scalar RSUExampleScenario.node[69].veinsmobility 	startTime 	166.3
scalar RSUExampleScenario.node[69].veinsmobility 	totalTime 	283.7
scalar RSUExampleScenario.node[69].veinsmobility 	stopTime 	450
scalar RSUExampleScenario.node[69].veinsmobility 	minSpeed 	0
scalar RSUExampleScenario.node[69].veinsmobility 	maxSpeed 	13.99963105595
scalar RSUExampleScenario.node[69].veinsmobility 	totalDistance 	860.32257479247
scalar RSUExampleScenario.node[69].veinsmobility 	totalCO2Emission 	412.26318065786
scalar RSUExampleScenario.node[7].appl 	meanClusterNodes 	4.25
scalar RSUExampleScenario.node[7].appl 	meanClusterHeadUtility 	9.2397812717836
scalar RSUExampleScenario.node[7].appl 	NumberofCH 	0.10810810810811
scalar RSUExampleScenario.node[7].appl 	NumberofON 	0.40540540540541
scalar RSUExampleScenario.node[7].appl 	NumberofFN 	0.48648648648649
scalar RSUExampleScenario.node[7].veinsmobility 	startTime 	16.9
scalar RSUExampleScenario.node[7].veinsmobility 	totalTime 	433.1
scalar RSUExampleScenario.node[7].veinsmobility 	stopTime 	450
scalar RSUExampleScenario.node[7].veinsmobility 	minSpeed 	0
scalar RSUExampleScenario.node[7].veinsmobility 	maxSpeed 	13.999952540256
scalar RSUExampleScenario.node[7].veinsmobility 	totalDistance 	2885.3631981821
scalar RSUExampleScenario.node[7].veinsmobility 	totalCO2Emission 	776.1636579042
scalar RSUExampleScenario.node[70].appl 	meanClusterNodes 	2.3333333333333
scalar RSUExampleScenario.node[70].appl 	meanClusterHeadUtility 	5.8326978791744
scalar RSUExampleScenario.node[70].appl 	NumberofCH 	0.16216216216216
scalar RSUExampleScenario.node[70].appl 	NumberofON 	0.62162162162162
scalar RSUExampleScenario.node[70].appl 	NumberofFN 	0.21621621621622
scalar RSUExampleScenario.node[70].veinsmobility 	startTime 	168.8
scalar RSUExampleScenario.node[70].veinsmobility 	totalTime 	281.2
scalar RSUExampleScenario.node[70].veinsmobility 	stopTime 	450
scalar RSUExampleScenario.node[70].veinsmobility 	minSpeed 	0
scalar RSUExampleScenario.node[70].veinsmobility 	maxSpeed 	13.999669566934
scalar RSUExampleScenario.node[70].veinsmobility 	totalDistance 	826.9964026775
scalar RSUExampleScenario.node[70].veinsmobility 	totalCO2Emission 	408.21770768491
scalar RSUExampleScenario.node[71].appl 	meanClusterNodes 	3.6666666666667
scalar RSUExampleScenario.node[71].appl 	meanClusterHeadUtility 	5.7242416012943
scalar RSUExampleScenario.node[71].appl 	NumberofCH 	0.16216216216216
scalar RSUExampleScenario.node[71].appl 	NumberofON 	0.62162162162162
scalar RSUExampleScenario.node[71].appl 	NumberofFN 	0.21621621621622
scalar RSUExampleScenario.node[71].veinsmobility 	startTime 	171.2
scalar RSUExampleScenario.node[71].veinsmobility 	totalTime 	278.8
scalar RSUExampleScenario.node[71].veinsmobility 	stopTime 	450
scalar RSUExampleScenario.node[71].veinsmobility 	minSpeed 	0
scalar RSUExampleScenario.node[71].veinsmobility 	maxSpeed 	13.999990328865
scalar RSUExampleScenario.node[71].veinsmobility 	totalDistance 	793.15059883858
scalar RSUExampleScenario.node[71].veinsmobility 	totalCO2Emission 	402.67606523602
scalar RSUExampleScenario.node[72].appl 	meanClusterNodes 	6
scalar RSUExampleScenario.node[72].appl 	meanClusterHeadUtility 	8.1821644824024
scalar RSUExampleScenario.node[72].appl 	NumberofCH 	0.10810810810811
scalar RSUExampleScenario.node[72].appl 	NumberofON 	0.45945945945946
scalar RSUExampleScenario.node[72].appl 	NumberofFN 	0.43243243243243
scalar RSUExampleScenario.node[72].veinsmobility 	startTime 	173.6
scalar RSUExampleScenario.node[72].veinsmobility 	totalTime 	276.4
scalar RSUExampleScenario.node[72].veinsmobility 	stopTime 	450
scalar RSUExampleScenario.node[72].veinsmobility 	minSpeed 	0
scalar RSUExampleScenario.node[72].veinsmobility 	maxSpeed 	13.999793329088
scalar RSUExampleScenario.node[72].veinsmobility 	totalDistance 	760.19398404274
scalar RSUExampleScenario.node[72].veinsmobility 	totalCO2Emission 	397.54668848558
scalar RSUExampleScenario.node[73].appl 	meanClusterNodes 	4.25
scalar RSUExampleScenario.node[73].appl 	meanClusterHeadUtility 	8.1800930382152
scalar RSUExampleScenario.node[73].appl 	NumberofCH 	0.10810810810811
scalar RSUExampleScenario.node[73].appl 	NumberofON 	0.67567567567568
scalar RSUExampleScenario.node[73].appl 	NumberofFN 	0.21621621621622
scalar RSUExampleScenario.node[73].veinsmobility 	startTime 	176
scalar RSUExampleScenario.node[73].veinsmobility 	totalTime 	274
scalar RSUExampleScenario.node[73].veinsmobility 	stopTime 	450
scalar RSUExampleScenario.node[73].veinsmobility 	minSpeed 	0
scalar RSUExampleScenario.node[73].veinsmobility 	maxSpeed 	13.999517150051
scalar RSUExampleScenario.node[73].veinsmobility 	totalDistance 	727.45228682572
scalar RSUExampleScenario.node[73].veinsmobility 	totalCO2Emission 	390.23663702563
scalar RSUExampleScenario.node[74].appl 	meanClusterNodes 	6.5
scalar RSUExampleScenario.node[74].appl 	meanClusterHeadUtility 	8.8056470199588
scalar RSUExampleScenario.node[74].appl 	NumberofCH 	0.10810810810811
scalar RSUExampleScenario.node[74].appl 	NumberofON 	0.67567567567568
scalar RSUExampleScenario.node[74].appl 	NumberofFN 	0.21621621621622
scalar RSUExampleScenario.node[74].veinsmobility 	startTime 	178.4
scalar RSUExampleScenario.node[74].veinsmobility 	totalTime 	271.6
scalar RSUExampleScenario.node[74].veinsmobility 	stopTime 	450
scalar RSUExampleScenario.node[74].veinsmobility 	minSpeed 	0
scalar RSUExampleScenario.node[74].veinsmobility 	maxSpeed 	13.999213024131
scalar RSUExampleScenario.node[74].veinsmobility 	totalDistance 	689.46827552535
scalar RSUExampleScenario.node[74].veinsmobility 	totalCO2Emission 	384.18785405373
scalar RSUExampleScenario.node[75].appl 	meanClusterNodes 	6.5
scalar RSUExampleScenario.node[75].appl 	meanClusterHeadUtility 	8.5043501924474
scalar RSUExampleScenario.node[75].appl 	NumberofCH 	0.10810810810811
scalar RSUExampleScenario.node[75].appl 	NumberofON 	0.48648648648649
scalar RSUExampleScenario.node[75].appl 	NumberofFN 	0.40540540540541
scalar RSUExampleScenario.node[75].veinsmobility 	startTime 	180.8
scalar RSUExampleScenario.node[75].veinsmobility 	totalTime 	269.2
scalar RSUExampleScenario.node[75].veinsmobility 	stopTime 	450
scalar RSUExampleScenario.node[75].veinsmobility 	minSpeed 	0
scalar RSUExampleScenario.node[75].veinsmobility 	maxSpeed 	13.998848845412
scalar RSUExampleScenario.node[75].veinsmobility 	totalDistance 	658.69741643043
scalar RSUExampleScenario.node[75].veinsmobility 	totalCO2Emission 	378.87187733398
scalar RSUExampleScenario.node[76].appl 	meanClusterNodes 	2.75
scalar RSUExampleScenario.node[76].appl 	meanClusterHeadUtility 	8.8196718299187
scalar RSUExampleScenario.node[76].appl 	NumberofCH 	0.10810810810811
scalar RSUExampleScenario.node[76].appl 	NumberofON 	0.78378378378378
scalar RSUExampleScenario.node[76].appl 	NumberofFN 	0.10810810810811
scalar RSUExampleScenario.node[76].veinsmobility 	startTime 	183.2
scalar RSUExampleScenario.node[76].veinsmobility 	totalTime 	266.8
scalar RSUExampleScenario.node[76].veinsmobility 	stopTime 	450
scalar RSUExampleScenario.node[76].veinsmobility 	minSpeed 	0
scalar RSUExampleScenario.node[76].veinsmobility 	maxSpeed 	13.998576835184
scalar RSUExampleScenario.node[76].veinsmobility 	totalDistance 	624.16177650454
scalar RSUExampleScenario.node[76].veinsmobility 	totalCO2Emission 	374.44353082351
scalar RSUExampleScenario.node[77].appl 	meanClusterNodes 	4.5
scalar RSUExampleScenario.node[77].appl 	meanClusterHeadUtility 	9.4856569280026
scalar RSUExampleScenario.node[77].appl 	NumberofCH 	0.10810810810811
scalar RSUExampleScenario.node[77].appl 	NumberofON 	0.75675675675676
scalar RSUExampleScenario.node[77].appl 	NumberofFN 	0.13513513513514
scalar RSUExampleScenario.node[77].veinsmobility 	startTime 	185.6
scalar RSUExampleScenario.node[77].veinsmobility 	totalTime 	264.4
scalar RSUExampleScenario.node[77].veinsmobility 	stopTime 	450
scalar RSUExampleScenario.node[77].veinsmobility 	minSpeed 	0
scalar RSUExampleScenario.node[77].veinsmobility 	maxSpeed 	13.999086545184
scalar RSUExampleScenario.node[77].veinsmobility 	totalDistance 	589.55361871496
scalar RSUExampleScenario.node[77].veinsmobility 	totalCO2Emission 	366.27521864918
scalar RSUExampleScenario.node[78].appl 	meanClusterNodes 	6
scalar RSUExampleScenario.node[78].appl 	meanClusterHeadUtility 	8.5044985087933
scalar RSUExampleScenario.node[78].appl 	NumberofCH 	0.10810810810811
scalar RSUExampleScenario.node[78].appl 	NumberofON 	0.40540540540541
scalar RSUExampleScenario.node[78].appl 	NumberofFN 	0.48648648648649
scalar RSUExampleScenario.node[78].veinsmobility 	startTime 	188
scalar RSUExampleScenario.node[78].veinsmobility 	totalTime 	262
scalar RSUExampleScenario.node[78].veinsmobility 	stopTime 	450
scalar RSUExampleScenario.node[78].veinsmobility 	minSpeed 	0
scalar RSUExampleScenario.node[78].veinsmobility 	maxSpeed 	13.999489229894
scalar RSUExampleScenario.node[78].veinsmobility 	totalDistance 	556.68713112344
scalar RSUExampleScenario.node[78].veinsmobility 	totalCO2Emission 	360.4908251182
scalar RSUExampleScenario.node[79].appl 	meanClusterNodes 	4.5
scalar RSUExampleScenario.node[79].appl 	meanClusterHeadUtility 	8.8733146465586
scalar RSUExampleScenario.node[79].appl 	NumberofCH 	0.10810810810811
scalar RSUExampleScenario.node[79].appl 	NumberofON 	0.51351351351351
scalar RSUExampleScenario.node[79].appl 	NumberofFN 	0.37837837837838
scalar RSUExampleScenario.node[79].veinsmobility 	startTime 	190.4
scalar RSUExampleScenario.node[79].veinsmobility 	totalTime 	259.6
scalar RSUExampleScenario.node[79].veinsmobility 	stopTime 	450
scalar RSUExampleScenario.node[79].veinsmobility 	minSpeed 	0
scalar RSUExampleScenario.node[79].veinsmobility 	maxSpeed 	13.999672976411
scalar RSUExampleScenario.node[79].veinsmobility 	totalDistance 	522.46356217855
scalar RSUExampleScenario.node[79].veinsmobility 	totalCO2Emission 	356.96373651477
scalar RSUExampleScenario.node[8].appl 	meanClusterNodes 	2.75
scalar RSUExampleScenario.node[8].appl 	meanClusterHeadUtility 	9.1788350711075
scalar RSUExampleScenario.node[8].appl 	NumberofCH 	0.10810810810811
scalar RSUExampleScenario.node[8].appl 	NumberofON 	0.45945945945946
scalar RSUExampleScenario.node[8].appl 	NumberofFN 	0.43243243243243
scalar RSUExampleScenario.node[8].veinsmobility 	startTime 	19.3
scalar RSUExampleScenario.node[8].veinsmobility 	totalTime 	430.7
scalar RSUExampleScenario.node[8].veinsmobility 	stopTime 	450
scalar RSUExampleScenario.node[8].veinsmobility 	minSpeed 	0
scalar RSUExampleScenario.node[8].veinsmobility 	maxSpeed 	13.999718557119
scalar RSUExampleScenario.node[8].veinsmobility 	totalDistance 	2859.6372628402
scalar RSUExampleScenario.node[8].veinsmobility 	totalCO2Emission 	769.83514341491
scalar RSUExampleScenario.node[80].appl 	meanClusterNodes 	3.25
scalar RSUExampleScenario.node[80].appl 	meanClusterHeadUtility 	9.213431430804
scalar RSUExampleScenario.node[80].appl 	NumberofCH 	0.10810810810811
scalar RSUExampleScenario.node[80].appl 	NumberofON 	0.75675675675676
scalar RSUExampleScenario.node[80].appl 	NumberofFN 	0.13513513513514
scalar RSUExampleScenario.node[80].veinsmobility 	startTime 	192.9
scalar RSUExampleScenario.node[80].veinsmobility 	totalTime 	257.1
scalar RSUExampleScenario.node[80].veinsmobility 	stopTime 	450
scalar RSUExampleScenario.node[80].veinsmobility 	minSpeed 	0
scalar RSUExampleScenario.node[80].veinsmobility 	maxSpeed 	13.999924847018
scalar RSUExampleScenario.node[80].veinsmobility 	totalDistance 	489.3616160749
scalar RSUExampleScenario.node[80].veinsmobility 	totalCO2Emission 	351.43827113232
scalar RSUExampleScenario.node[81].appl 	meanClusterNodes 	4.25
scalar RSUExampleScenario.node[81].appl 	meanClusterHeadUtility 	8.9472531010757
scalar RSUExampleScenario.node[81].appl 	NumberofCH 	0.10810810810811
scalar RSUExampleScenario.node[81].appl 	NumberofON 	0.32432432432432
scalar RSUExampleScenario.node[81].appl 	NumberofFN 	0.56756756756757
scalar RSUExampleScenario.node[81].veinsmobility 	startTime 	195.3
scalar RSUExampleScenario.node[81].veinsmobility 	totalTime 	254.7
scalar RSUExampleScenario.node[81].veinsmobility 	stopTime 	450
scalar RSUExampleScenario.node[81].veinsmobility 	minSpeed 	0
scalar RSUExampleScenario.node[81].veinsmobility 	maxSpeed 	13.99871195785
scalar RSUExampleScenario.node[81].veinsmobility 	totalDistance 	455.31189305169
scalar RSUExampleScenario.node[81].veinsmobility 	totalCO2Emission 	344.65083764999
scalar RSUExampleScenario.node[82].appl 	meanClusterNodes 	2.25
scalar RSUExampleScenario.node[82].appl 	meanClusterHeadUtility 	8.5107020635754
scalar RSUExampleScenario.node[82].appl 	NumberofCH 	0.10810810810811
scalar RSUExampleScenario.node[82].appl 	NumberofON 	0.78378378378378
scalar RSUExampleScenario.node[82].appl 	NumberofFN 	0.10810810810811
scalar RSUExampleScenario.node[82].veinsmobility 	startTime 	197.7
scalar RSUExampleScenario.node[82].veinsmobility 	totalTime 	252.3
scalar RSUExampleScenario.node[82].veinsmobility 	stopTime 	450
scalar RSUExampleScenario.node[82].veinsmobility 	minSpeed 	0
scalar RSUExampleScenario.node[82].veinsmobility 	maxSpeed 	13.999285299748
scalar RSUExampleScenario.node[82].veinsmobility 	totalDistance 	422.47086703015
scalar RSUExampleScenario.node[82].veinsmobility 	totalCO2Emission 	338.64787181422
scalar RSUExampleScenario.node[83].appl 	meanClusterNodes 	2.6666666666667
scalar RSUExampleScenario.node[83].appl 	meanClusterHeadUtility 	5.7798663567347
scalar RSUExampleScenario.node[83].appl 	NumberofCH 	0.16216216216216
scalar RSUExampleScenario.node[83].appl 	NumberofON 	0.51351351351351
scalar RSUExampleScenario.node[83].appl 	NumberofFN 	0.32432432432432
scalar RSUExampleScenario.node[83].veinsmobility 	startTime 	200.1
scalar RSUExampleScenario.node[83].veinsmobility 	totalTime 	249.9
scalar RSUExampleScenario.node[83].veinsmobility 	stopTime 	450
scalar RSUExampleScenario.node[83].veinsmobility 	minSpeed 	0
scalar RSUExampleScenario.node[83].veinsmobility 	maxSpeed 	13.999465459478
scalar RSUExampleScenario.node[83].veinsmobility 	totalDistance 	389.46665267262
scalar RSUExampleScenario.node[83].veinsmobility 	totalCO2Emission 	333.96286702724
scalar RSUExampleScenario.node[84].appl 	meanClusterNodes 	6
scalar RSUExampleScenario.node[84].appl 	meanClusterHeadUtility 	7.1706334391653
scalar RSUExampleScenario.node[84].appl 	NumberofCH 	0.13513513513514
scalar RSUExampleScenario.node[84].appl 	NumberofON 	0.54054054054054
scalar RSUExampleScenario.node[84].appl 	NumberofFN 	0.32432432432432
scalar RSUExampleScenario.node[84].veinsmobility 	startTime 	202.5
scalar RSUExampleScenario.node[84].veinsmobility 	totalTime 	247.5
scalar RSUExampleScenario.node[84].veinsmobility 	stopTime 	450
scalar RSUExampleScenario.node[84].veinsmobility 	minSpeed 	0
scalar RSUExampleScenario.node[84].veinsmobility 	maxSpeed 	13.999087753664
scalar RSUExampleScenario.node[84].veinsmobility 	totalDistance 	355.324371138
scalar RSUExampleScenario.node[84].veinsmobility 	totalCO2Emission 	328.52226427841
scalar RSUExampleScenario.node[85].appl 	meanClusterNodes 	4
scalar RSUExampleScenario.node[85].appl 	meanClusterHeadUtility 	6.3760025475007
scalar RSUExampleScenario.node[85].appl 	NumberofCH 	0.13513513513514
scalar RSUExampleScenario.node[85].appl 	NumberofON 	0.54054054054054
scalar RSUExampleScenario.node[85].appl 	NumberofFN 	0.32432432432432
scalar RSUExampleScenario.node[85].veinsmobility 	startTime 	204.9
scalar RSUExampleScenario.node[85].veinsmobility 	totalTime 	245.1
scalar RSUExampleScenario.node[85].veinsmobility 	stopTime 	450
scalar RSUExampleScenario.node[85].veinsmobility 	minSpeed 	0
scalar RSUExampleScenario.node[85].veinsmobility 	maxSpeed 	13.99979909423
scalar RSUExampleScenario.node[85].veinsmobility 	totalDistance 	323.2882558162
scalar RSUExampleScenario.node[85].veinsmobility 	totalCO2Emission 	322.6046777721
scalar RSUExampleScenario.node[86].appl 	meanClusterNodes 	3.1666666666667
scalar RSUExampleScenario.node[86].appl 	meanClusterHeadUtility 	5.6739591790687
scalar RSUExampleScenario.node[86].appl 	NumberofCH 	0.16216216216216
scalar RSUExampleScenario.node[86].appl 	NumberofON 	0.7027027027027
scalar RSUExampleScenario.node[86].appl 	NumberofFN 	0.13513513513514
scalar RSUExampleScenario.node[86].veinsmobility 	startTime 	207.3
scalar RSUExampleScenario.node[86].veinsmobility 	totalTime 	242.7
scalar RSUExampleScenario.node[86].veinsmobility 	stopTime 	450
scalar RSUExampleScenario.node[86].veinsmobility 	minSpeed 	0
scalar RSUExampleScenario.node[86].veinsmobility 	maxSpeed 	13.887102372523
scalar RSUExampleScenario.node[86].veinsmobility 	totalDistance 	287.85032365874
scalar RSUExampleScenario.node[86].veinsmobility 	totalCO2Emission 	315.66633338213
scalar RSUExampleScenario.node[87].appl 	meanClusterNodes 	3
scalar RSUExampleScenario.node[87].appl 	meanClusterHeadUtility 	8.5400421521712
scalar RSUExampleScenario.node[87].appl 	NumberofCH 	0.10810810810811
scalar RSUExampleScenario.node[87].appl 	NumberofON 	0.62162162162162
scalar RSUExampleScenario.node[87].appl 	NumberofFN 	0.27027027027027
scalar RSUExampleScenario.node[87].veinsmobility 	startTime 	209.7
scalar RSUExampleScenario.node[87].veinsmobility 	totalTime 	240.3
scalar RSUExampleScenario.node[87].veinsmobility 	stopTime 	450
scalar RSUExampleScenario.node[87].veinsmobility 	minSpeed 	0
scalar RSUExampleScenario.node[87].veinsmobility 	maxSpeed 	13.796737363054
scalar RSUExampleScenario.node[87].veinsmobility 	totalDistance 	248.16914230712
scalar RSUExampleScenario.node[87].veinsmobility 	totalCO2Emission 	297.85339752419
scalar RSUExampleScenario.node[88].appl 	meanClusterNodes 	3.8
scalar RSUExampleScenario.node[88].appl 	meanClusterHeadUtility 	7.4115401579642
scalar RSUExampleScenario.node[88].appl 	NumberofCH 	0.13513513513514
scalar RSUExampleScenario.node[88].appl 	NumberofON 	0.59459459459459
scalar RSUExampleScenario.node[88].appl 	NumberofFN 	0.27027027027027
scalar RSUExampleScenario.node[88].veinsmobility 	startTime 	212.1
scalar RSUExampleScenario.node[88].veinsmobility 	totalTime 	237.9
scalar RSUExampleScenario.node[88].veinsmobility 	stopTime 	450
scalar RSUExampleScenario.node[88].veinsmobility 	minSpeed 	0
scalar RSUExampleScenario.node[88].veinsmobility 	maxSpeed 	13.722230021849
scalar RSUExampleScenario.node[88].veinsmobility 	totalDistance 	225.61685795529
scalar RSUExampleScenario.node[88].veinsmobility 	totalCO2Emission 	286.71445332954
scalar RSUExampleScenario.node[89].appl 	meanClusterNodes 	6.25
scalar RSUExampleScenario.node[89].appl 	meanClusterHeadUtility 	9.0419373477309
scalar RSUExampleScenario.node[89].appl 	NumberofCH 	0.10810810810811
scalar RSUExampleScenario.node[89].appl 	NumberofON 	0.62162162162162
scalar RSUExampleScenario.node[89].appl 	NumberofFN 	0.27027027027027
scalar RSUExampleScenario.node[89].veinsmobility 	startTime 	214.5
scalar RSUExampleScenario.node[89].veinsmobility 	totalTime 	235.5
scalar RSUExampleScenario.node[89].veinsmobility 	stopTime 	450
scalar RSUExampleScenario.node[89].veinsmobility 	minSpeed 	0
scalar RSUExampleScenario.node[89].veinsmobility 	maxSpeed 	13.844370833133
scalar RSUExampleScenario.node[89].veinsmobility 	totalDistance 	215.23485214054
scalar RSUExampleScenario.node[89].veinsmobility 	totalCO2Emission 	283.14352128207
scalar RSUExampleScenario.node[9].appl 	meanClusterNodes 	2
scalar RSUExampleScenario.node[9].appl 	meanClusterHeadUtility 	6.0795544146642
scalar RSUExampleScenario.node[9].appl 	NumberofCH 	0.16216216216216
scalar RSUExampleScenario.node[9].appl 	NumberofON 	0.40540540540541
scalar RSUExampleScenario.node[9].appl 	NumberofFN 	0.43243243243243
scalar RSUExampleScenario.node[9].veinsmobility 	startTime 	21.7
scalar RSUExampleScenario.node[9].veinsmobility 	totalTime 	428.3
scalar RSUExampleScenario.node[9].veinsmobility 	stopTime 	450
scalar RSUExampleScenario.node[9].veinsmobility 	minSpeed 	0
scalar RSUExampleScenario.node[9].veinsmobility 	maxSpeed 	13.999982327281
scalar RSUExampleScenario.node[9].veinsmobility 	totalDistance 	2825.4161286026
scalar RSUExampleScenario.node[9].veinsmobility 	totalCO2Emission 	766.22678028409
scalar RSUExampleScenario.node[90].appl 	meanClusterNodes 	4.3333333333333
scalar RSUExampleScenario.node[90].appl 	meanClusterHeadUtility 	12.17974342543
scalar RSUExampleScenario.node[90].appl 	NumberofCH 	0.081081081081081
scalar RSUExampleScenario.node[90].appl 	NumberofON 	0.64864864864865
scalar RSUExampleScenario.node[90].appl 	NumberofFN 	0.27027027027027
scalar RSUExampleScenario.node[90].veinsmobility 	startTime 	217
scalar RSUExampleScenario.node[90].veinsmobility 	totalTime 	233
scalar RSUExampleScenario.node[90].veinsmobility 	stopTime 	450
scalar RSUExampleScenario.node[90].veinsmobility 	minSpeed 	0
scalar RSUExampleScenario.node[90].veinsmobility 	maxSpeed 	13.776881784544
scalar RSUExampleScenario.node[90].veinsmobility 	totalDistance 	201.67766560457
scalar RSUExampleScenario.node[90].veinsmobility 	totalCO2Emission 	279.82632417862
scalar RSUExampleScenario.node[91].appl 	meanClusterNodes 	5.1666666666667
scalar RSUExampleScenario.node[91].appl 	meanClusterHeadUtility 	6.5409315659508
scalar RSUExampleScenario.node[91].appl 	NumberofCH 	0.16216216216216
scalar RSUExampleScenario.node[91].appl 	NumberofON 	0.56756756756757
scalar RSUExampleScenario.node[91].appl 	NumberofFN 	0.27027027027027
scalar RSUExampleScenario.node[91].veinsmobility 	startTime 	219.4
scalar RSUExampleScenario.node[91].veinsmobility 	totalTime 	230.6
scalar RSUExampleScenario.node[91].veinsmobility 	stopTime 	450
scalar RSUExampleScenario.node[91].veinsmobility 	minSpeed 	0
scalar RSUExampleScenario.node[91].veinsmobility 	maxSpeed 	13.883164706405
scalar RSUExampleScenario.node[91].veinsmobility 	totalDistance 	185.06100599793
scalar RSUExampleScenario.node[91].veinsmobility 	totalCO2Emission 	277.67152189838
scalar RSUExampleScenario.node[92].appl 	meanClusterNodes 	2.75
scalar RSUExampleScenario.node[92].appl 	meanClusterHeadUtility 	8.2758836910195
scalar RSUExampleScenario.node[92].appl 	NumberofCH 	0.10810810810811
scalar RSUExampleScenario.node[92].appl 	NumberofON 	0.59459459459459
scalar RSUExampleScenario.node[92].appl 	NumberofFN 	0.2972972972973
scalar RSUExampleScenario.node[92].veinsmobility 	startTime 	221.8
scalar RSUExampleScenario.node[92].veinsmobility 	totalTime 	228.2
scalar RSUExampleScenario.node[92].veinsmobility 	stopTime 	450
scalar RSUExampleScenario.node[92].veinsmobility 	minSpeed 	0
scalar RSUExampleScenario.node[92].veinsmobility 	maxSpeed 	13.789139409154
scalar RSUExampleScenario.node[92].veinsmobility 	totalDistance 	150.77664741393
scalar RSUExampleScenario.node[92].veinsmobility 	totalCO2Emission 	264.01489815357
scalar RSUExampleScenario.node[93].appl 	meanClusterNodes 	7.1666666666667
scalar RSUExampleScenario.node[93].appl 	meanClusterHeadUtility 	6.0718756186764
scalar RSUExampleScenario.node[93].appl 	NumberofCH 	0.16216216216216
scalar RSUExampleScenario.node[93].appl 	NumberofON 	0.40540540540541
scalar RSUExampleScenario.node[93].appl 	NumberofFN 	0.43243243243243
scalar RSUExampleScenario.node[93].veinsmobility 	startTime 	224.2
scalar RSUExampleScenario.node[93].veinsmobility 	totalTime 	225.8
scalar RSUExampleScenario.node[93].veinsmobility 	stopTime 	450
scalar RSUExampleScenario.node[93].veinsmobility 	minSpeed 	0
scalar RSUExampleScenario.node[93].veinsmobility 	maxSpeed 	13.846406746148
scalar RSUExampleScenario.node[93].veinsmobility 	totalDistance 	122.8891859539
scalar RSUExampleScenario.node[93].veinsmobility 	totalCO2Emission 	251.46620256791
scalar RSUExampleScenario.node[94].appl 	meanClusterNodes 	2.3333333333333
scalar RSUExampleScenario.node[94].appl 	meanClusterHeadUtility 	5.8959157096832
scalar RSUExampleScenario.node[94].appl 	NumberofCH 	0.16216216216216
scalar RSUExampleScenario.node[94].appl 	NumberofON 	0.54054054054054
scalar RSUExampleScenario.node[94].appl 	NumberofFN 	0.2972972972973
scalar RSUExampleScenario.node[94].veinsmobility 	startTime 	226.6
scalar RSUExampleScenario.node[94].veinsmobility 	totalTime 	223.4
scalar RSUExampleScenario.node[94].veinsmobility 	stopTime 	450
scalar RSUExampleScenario.node[94].veinsmobility 	minSpeed 	0
scalar RSUExampleScenario.node[94].veinsmobility 	maxSpeed 	13.847627895811
scalar RSUExampleScenario.node[94].veinsmobility 	totalDistance 	111.79831045971
scalar RSUExampleScenario.node[94].veinsmobility 	totalCO2Emission 	245.4855563416
scalar RSUExampleScenario.node[95].appl 	meanClusterNodes 	1.5
scalar RSUExampleScenario.node[95].appl 	meanClusterHeadUtility 	9.7710596623803
scalar RSUExampleScenario.node[95].appl 	NumberofCH 	0.10810810810811
scalar RSUExampleScenario.node[95].appl 	NumberofON 	0.81081081081081
scalar RSUExampleScenario.node[95].appl 	NumberofFN 	0.081081081081081
scalar RSUExampleScenario.node[95].veinsmobility 	startTime 	229
scalar RSUExampleScenario.node[95].veinsmobility 	totalTime 	221
scalar RSUExampleScenario.node[95].veinsmobility 	stopTime 	450
scalar RSUExampleScenario.node[95].veinsmobility 	minSpeed 	0
scalar RSUExampleScenario.node[95].veinsmobility 	maxSpeed 	13.856092493206
scalar RSUExampleScenario.node[95].veinsmobility 	totalDistance 	98.822663012793
scalar RSUExampleScenario.node[95].veinsmobility 	totalCO2Emission 	242.33348928339
scalar RSUExampleScenario.node[96].appl 	meanClusterNodes 	4.2
scalar RSUExampleScenario.node[96].appl 	meanClusterHeadUtility 	7.1341492229861
scalar RSUExampleScenario.node[96].appl 	NumberofCH 	0.13513513513514
scalar RSUExampleScenario.node[96].appl 	NumberofON 	0.43243243243243
scalar RSUExampleScenario.node[96].appl 	NumberofFN 	0.43243243243243
scalar RSUExampleScenario.node[96].veinsmobility 	startTime 	231.4
scalar RSUExampleScenario.node[96].veinsmobility 	totalTime 	218.6
scalar RSUExampleScenario.node[96].veinsmobility 	stopTime 	450
scalar RSUExampleScenario.node[96].veinsmobility 	minSpeed 	0
scalar RSUExampleScenario.node[96].veinsmobility 	maxSpeed 	13.806725924874
scalar RSUExampleScenario.node[96].veinsmobility 	totalDistance 	82.998820562314
scalar RSUExampleScenario.node[96].veinsmobility 	totalCO2Emission 	239.92586708264
scalar RSUExampleScenario.node[97].appl 	meanClusterNodes 	2
scalar RSUExampleScenario.node[97].appl 	meanClusterHeadUtility 	7.627876370243
scalar RSUExampleScenario.node[97].appl 	NumberofCH 	0.10810810810811
scalar RSUExampleScenario.node[97].appl 	NumberofON 	0.56756756756757
scalar RSUExampleScenario.node[97].appl 	NumberofFN 	0.32432432432432
scalar RSUExampleScenario.node[97].veinsmobility 	startTime 	233.8
scalar RSUExampleScenario.node[97].veinsmobility 	totalTime 	216.2
scalar RSUExampleScenario.node[97].veinsmobility 	stopTime 	450
scalar RSUExampleScenario.node[97].veinsmobility 	minSpeed 	0
scalar RSUExampleScenario.node[97].veinsmobility 	maxSpeed 	12.623369438218
scalar RSUExampleScenario.node[97].veinsmobility 	totalDistance 	57.484736319204
scalar RSUExampleScenario.node[97].veinsmobility 	totalCO2Emission 	232.85467114194
scalar RSUExampleScenario.node[98].appl 	meanClusterNodes 	7.5
scalar RSUExampleScenario.node[98].appl 	meanClusterHeadUtility 	17.594565969647
scalar RSUExampleScenario.node[98].appl 	NumberofCH 	0.054054054054054
scalar RSUExampleScenario.node[98].appl 	NumberofON 	0.35135135135135
scalar RSUExampleScenario.node[98].appl 	NumberofFN 	0.59459459459459
scalar RSUExampleScenario.node[98].veinsmobility 	startTime 	236.2
scalar RSUExampleScenario.node[98].veinsmobility 	totalTime 	213.8
scalar RSUExampleScenario.node[98].veinsmobility 	stopTime 	450
scalar RSUExampleScenario.node[98].veinsmobility 	minSpeed 	0
scalar RSUExampleScenario.node[98].veinsmobility 	maxSpeed 	7.8514368930804
scalar RSUExampleScenario.node[98].veinsmobility 	totalDistance 	22.319508479819
scalar RSUExampleScenario.node[98].veinsmobility 	totalCO2Emission 	216.86339240745
scalar RSUExampleScenario.node[99].appl 	meanClusterNodes 	4.2
scalar RSUExampleScenario.node[99].appl 	meanClusterHeadUtility 	7.0677616404783
scalar RSUExampleScenario.node[99].appl 	NumberofCH 	0.13513513513514
scalar RSUExampleScenario.node[99].appl 	NumberofON 	0.37837837837838
scalar RSUExampleScenario.node[99].appl 	NumberofFN 	0.48648648648649
scalar RSUExampleScenario.node[99].veinsmobility 	startTime 	238.6
scalar RSUExampleScenario.node[99].veinsmobility 	totalTime 	211.4
scalar RSUExampleScenario.node[99].veinsmobility 	stopTime 	450
scalar RSUExampleScenario.node[99].veinsmobility 	minSpeed 	0
scalar RSUExampleScenario.node[99].veinsmobility 	maxSpeed 	3.0914083306462
scalar RSUExampleScenario.node[99].veinsmobility 	totalDistance 	3.3306072009249
scalar RSUExampleScenario.node[99].veinsmobility 	totalCO2Emission 	207.10984880309
