version 2
run statisticRVV-60-20150325-02:24:13-4868
attr c 7
attr configname statisticRVV
attr datetime 20150325-02:24:13
attr experiment statisticRVV
attr inifile omnetpp.ini
attr iterationvars "$sc=\"erlangen-low.launchd.xml\", $p=1/8, $c=7"
attr iterationvars2 "$sc=\"erlangen-low.launchd.xml\", $p=1/8, $c=7, $repetition=0"
attr measurement "$sc=\"erlangen-low.launchd.xml\", $p=1/8, $c=7"
attr network RSUExampleScenario
attr p 1/8
attr processid 4868
attr repetition 0
attr replication #0
attr resultdir results
attr runnumber 60
attr sc "\"erlangen-low.launchd.xml\""
attr seedset 60

scalar . 	c 	7
scalar RSUExampleScenario.node[0].veinsmobility 	startTime 	0.1
scalar RSUExampleScenario.node[0].veinsmobility 	totalTime 	226.9
scalar RSUExampleScenario.node[0].veinsmobility 	stopTime 	227.1
scalar RSUExampleScenario.node[0].veinsmobility 	minSpeed 	0.25608864674508
scalar RSUExampleScenario.node[0].veinsmobility 	maxSpeed 	18.999892558858
scalar RSUExampleScenario.node[0].veinsmobility 	totalDistance 	3409.3348826197
scalar RSUExampleScenario.node[0].veinsmobility 	totalCO2Emission 	706.74497621144
scalar RSUExampleScenario.node[1].veinsmobility 	startTime 	6.1
scalar RSUExampleScenario.node[1].veinsmobility 	totalTime 	227
scalar RSUExampleScenario.node[1].veinsmobility 	stopTime 	233.2
scalar RSUExampleScenario.node[1].veinsmobility 	minSpeed 	0.25733017181372
scalar RSUExampleScenario.node[1].veinsmobility 	maxSpeed 	18.999970724534
scalar RSUExampleScenario.node[1].veinsmobility 	totalDistance 	3409.4369958584
scalar RSUExampleScenario.node[1].veinsmobility 	totalCO2Emission 	712.48782577224
scalar RSUExampleScenario.node[2].veinsmobility 	startTime 	12.1
scalar RSUExampleScenario.node[2].veinsmobility 	totalTime 	226.8
scalar RSUExampleScenario.node[2].veinsmobility 	stopTime 	239
scalar RSUExampleScenario.node[2].veinsmobility 	minSpeed 	0.25484215843538
scalar RSUExampleScenario.node[2].veinsmobility 	maxSpeed 	18.999649223641
scalar RSUExampleScenario.node[2].veinsmobility 	totalDistance 	3409.5807222062
scalar RSUExampleScenario.node[2].veinsmobility 	totalCO2Emission 	707.59906807793
scalar RSUExampleScenario.node[3].veinsmobility 	startTime 	18.1
scalar RSUExampleScenario.node[3].veinsmobility 	totalTime 	227
scalar RSUExampleScenario.node[3].veinsmobility 	stopTime 	245.2
scalar RSUExampleScenario.node[3].veinsmobility 	minSpeed 	0.25121166186756
scalar RSUExampleScenario.node[3].veinsmobility 	maxSpeed 	18.999929605327
scalar RSUExampleScenario.node[3].veinsmobility 	totalDistance 	3409.2434418736
scalar RSUExampleScenario.node[3].veinsmobility 	totalCO2Emission 	706.56031766247
scalar RSUExampleScenario.node[4].veinsmobility 	startTime 	24.1
scalar RSUExampleScenario.node[4].veinsmobility 	totalTime 	227
scalar RSUExampleScenario.node[4].veinsmobility 	stopTime 	251.2
scalar RSUExampleScenario.node[4].veinsmobility 	minSpeed 	0.25026598945889
scalar RSUExampleScenario.node[4].veinsmobility 	maxSpeed 	18.999576194684
scalar RSUExampleScenario.node[4].veinsmobility 	totalDistance 	3409.9581631431
scalar RSUExampleScenario.node[4].veinsmobility 	totalCO2Emission 	706.94777625948
scalar RSUExampleScenario.node[5].veinsmobility 	startTime 	30.1
scalar RSUExampleScenario.node[5].veinsmobility 	totalTime 	226.7
scalar RSUExampleScenario.node[5].veinsmobility 	stopTime 	256.9
scalar RSUExampleScenario.node[5].veinsmobility 	minSpeed 	0.25375112387468
scalar RSUExampleScenario.node[5].veinsmobility 	maxSpeed 	18.999857551605
scalar RSUExampleScenario.node[5].veinsmobility 	totalDistance 	3409.6693448925
scalar RSUExampleScenario.node[5].veinsmobility 	totalCO2Emission 	709.27259469706
scalar RSUExampleScenario.node[6].veinsmobility 	startTime 	36.1
scalar RSUExampleScenario.node[6].veinsmobility 	totalTime 	226.8
scalar RSUExampleScenario.node[6].veinsmobility 	stopTime 	263
scalar RSUExampleScenario.node[6].veinsmobility 	minSpeed 	0.25343040761584
scalar RSUExampleScenario.node[6].veinsmobility 	maxSpeed 	18.999630658561
scalar RSUExampleScenario.node[6].veinsmobility 	totalDistance 	3409.6792814235
scalar RSUExampleScenario.node[6].veinsmobility 	totalCO2Emission 	708.24322326528
scalar RSUExampleScenario.node[7].veinsmobility 	startTime 	42.1
scalar RSUExampleScenario.node[7].veinsmobility 	totalTime 	226.8
scalar RSUExampleScenario.node[7].veinsmobility 	stopTime 	269
scalar RSUExampleScenario.node[7].veinsmobility 	minSpeed 	0.24983160930895
scalar RSUExampleScenario.node[7].veinsmobility 	maxSpeed 	18.999984626104
scalar RSUExampleScenario.node[7].veinsmobility 	totalDistance 	3409.6508912701
scalar RSUExampleScenario.node[7].veinsmobility 	totalCO2Emission 	704.27207226733
scalar RSUExampleScenario.node[8].veinsmobility 	startTime 	48.1
scalar RSUExampleScenario.node[8].veinsmobility 	totalTime 	227.1
scalar RSUExampleScenario.node[8].veinsmobility 	stopTime 	275.3
scalar RSUExampleScenario.node[8].veinsmobility 	minSpeed 	0.25915844432171
scalar RSUExampleScenario.node[8].veinsmobility 	maxSpeed 	18.999864721696
scalar RSUExampleScenario.node[8].veinsmobility 	totalDistance 	3409.6933151001
scalar RSUExampleScenario.node[8].veinsmobility 	totalCO2Emission 	707.43782714218
scalar RSUExampleScenario.node[9].veinsmobility 	startTime 	54.1
scalar RSUExampleScenario.node[9].veinsmobility 	totalTime 	226.9
scalar RSUExampleScenario.node[9].veinsmobility 	stopTime 	281.1
scalar RSUExampleScenario.node[9].veinsmobility 	minSpeed 	0.25491150546726
scalar RSUExampleScenario.node[9].veinsmobility 	maxSpeed 	18.999938053756
scalar RSUExampleScenario.node[9].veinsmobility 	totalDistance 	3409.268538818
scalar RSUExampleScenario.node[9].veinsmobility 	totalCO2Emission 	709.62608026874
scalar RSUExampleScenario.node[10].veinsmobility 	startTime 	60.1
scalar RSUExampleScenario.node[10].veinsmobility 	totalTime 	226.9
scalar RSUExampleScenario.node[10].veinsmobility 	stopTime 	287.1
scalar RSUExampleScenario.node[10].veinsmobility 	minSpeed 	0.25680973581807
scalar RSUExampleScenario.node[10].veinsmobility 	maxSpeed 	18.999781329981
scalar RSUExampleScenario.node[10].veinsmobility 	totalDistance 	3410.0178845666
scalar RSUExampleScenario.node[10].veinsmobility 	totalCO2Emission 	706.72766238678
scalar RSUExampleScenario.node[11].veinsmobility 	startTime 	66.1
scalar RSUExampleScenario.node[11].veinsmobility 	totalTime 	226.9
scalar RSUExampleScenario.node[11].veinsmobility 	stopTime 	293.1
scalar RSUExampleScenario.node[11].veinsmobility 	minSpeed 	0.25601506662369
scalar RSUExampleScenario.node[11].veinsmobility 	maxSpeed 	18.999813151651
scalar RSUExampleScenario.node[11].veinsmobility 	totalDistance 	3409.2826269988
scalar RSUExampleScenario.node[11].veinsmobility 	totalCO2Emission 	705.2179382953
scalar RSUExampleScenario.node[12].veinsmobility 	startTime 	72.1
scalar RSUExampleScenario.node[12].veinsmobility 	totalTime 	226.9
scalar RSUExampleScenario.node[12].veinsmobility 	stopTime 	299.1
scalar RSUExampleScenario.node[12].veinsmobility 	minSpeed 	0.24806022621179
scalar RSUExampleScenario.node[12].veinsmobility 	maxSpeed 	18.999974501585
scalar RSUExampleScenario.node[12].veinsmobility 	totalDistance 	3409.489990514
scalar RSUExampleScenario.node[12].veinsmobility 	totalCO2Emission 	707.64404548569
scalar RSUExampleScenario.node[13].veinsmobility 	startTime 	78.1
scalar RSUExampleScenario.node[13].veinsmobility 	totalTime 	226.8
scalar RSUExampleScenario.node[13].veinsmobility 	stopTime 	305
scalar RSUExampleScenario.node[13].veinsmobility 	minSpeed 	0.24871759941452
scalar RSUExampleScenario.node[13].veinsmobility 	maxSpeed 	18.999943025757
scalar RSUExampleScenario.node[13].veinsmobility 	totalDistance 	3409.3596162942
scalar RSUExampleScenario.node[13].veinsmobility 	totalCO2Emission 	707.05651585564
scalar RSUExampleScenario.node[14].veinsmobility 	startTime 	84.1
scalar RSUExampleScenario.node[14].veinsmobility 	totalTime 	227.1
scalar RSUExampleScenario.node[14].veinsmobility 	stopTime 	311.3
scalar RSUExampleScenario.node[14].veinsmobility 	minSpeed 	0.2470013971338
scalar RSUExampleScenario.node[14].veinsmobility 	maxSpeed 	18.999966867818
scalar RSUExampleScenario.node[14].veinsmobility 	totalDistance 	3409.3513431243
scalar RSUExampleScenario.node[14].veinsmobility 	totalCO2Emission 	707.07705459709
scalar RSUExampleScenario.node[15].veinsmobility 	startTime 	90.1
scalar RSUExampleScenario.node[15].veinsmobility 	totalTime 	226.6
scalar RSUExampleScenario.node[15].veinsmobility 	stopTime 	316.8
scalar RSUExampleScenario.node[15].veinsmobility 	minSpeed 	0.25548530870955
scalar RSUExampleScenario.node[15].veinsmobility 	maxSpeed 	18.999605741079
scalar RSUExampleScenario.node[15].veinsmobility 	totalDistance 	3409.4860337489
scalar RSUExampleScenario.node[15].veinsmobility 	totalCO2Emission 	705.62204501554
scalar RSUExampleScenario.node[16].veinsmobility 	startTime 	96.1
scalar RSUExampleScenario.node[16].veinsmobility 	totalTime 	227
scalar RSUExampleScenario.node[16].veinsmobility 	stopTime 	323.2
scalar RSUExampleScenario.node[16].veinsmobility 	minSpeed 	0.25402907798626
scalar RSUExampleScenario.node[16].veinsmobility 	maxSpeed 	18.999892666067
scalar RSUExampleScenario.node[16].veinsmobility 	totalDistance 	3410.0187762461
scalar RSUExampleScenario.node[16].veinsmobility 	totalCO2Emission 	707.03941634456
scalar RSUExampleScenario.node[17].veinsmobility 	startTime 	102.1
scalar RSUExampleScenario.node[17].veinsmobility 	totalTime 	227.2
scalar RSUExampleScenario.node[17].veinsmobility 	stopTime 	329.4
scalar RSUExampleScenario.node[17].veinsmobility 	minSpeed 	0.25714966875664
scalar RSUExampleScenario.node[17].veinsmobility 	maxSpeed 	18.999824763872
scalar RSUExampleScenario.node[17].veinsmobility 	totalDistance 	3409.5305912923
scalar RSUExampleScenario.node[17].veinsmobility 	totalCO2Emission 	707.60131454364
scalar RSUExampleScenario.node[18].veinsmobility 	startTime 	108.1
scalar RSUExampleScenario.node[18].veinsmobility 	totalTime 	227.1
scalar RSUExampleScenario.node[18].veinsmobility 	stopTime 	335.3
scalar RSUExampleScenario.node[18].veinsmobility 	minSpeed 	0.25252571723983
scalar RSUExampleScenario.node[18].veinsmobility 	maxSpeed 	18.999861411015
scalar RSUExampleScenario.node[18].veinsmobility 	totalDistance 	3409.9193911384
scalar RSUExampleScenario.node[18].veinsmobility 	totalCO2Emission 	709.59173572417
scalar RSUExampleScenario.node[19].veinsmobility 	startTime 	114.1
scalar RSUExampleScenario.node[19].veinsmobility 	totalTime 	226.7
scalar RSUExampleScenario.node[19].veinsmobility 	stopTime 	340.9
scalar RSUExampleScenario.node[19].veinsmobility 	minSpeed 	0.24899115178944
scalar RSUExampleScenario.node[19].veinsmobility 	maxSpeed 	18.999878274428
scalar RSUExampleScenario.node[19].veinsmobility 	totalDistance 	3409.7181287763
scalar RSUExampleScenario.node[19].veinsmobility 	totalCO2Emission 	707.49563155267
scalar RSUExampleScenario.node[20].veinsmobility 	startTime 	120.1
scalar RSUExampleScenario.node[20].veinsmobility 	totalTime 	226.5
scalar RSUExampleScenario.node[20].veinsmobility 	stopTime 	346.7
scalar RSUExampleScenario.node[20].veinsmobility 	minSpeed 	0.24712528208713
scalar RSUExampleScenario.node[20].veinsmobility 	maxSpeed 	18.999801240866
scalar RSUExampleScenario.node[20].veinsmobility 	totalDistance 	3409.1725108706
scalar RSUExampleScenario.node[20].veinsmobility 	totalCO2Emission 	704.39470859755
scalar RSUExampleScenario.node[21].veinsmobility 	startTime 	126.1
scalar RSUExampleScenario.node[21].veinsmobility 	totalTime 	227
scalar RSUExampleScenario.node[21].veinsmobility 	stopTime 	353.2
scalar RSUExampleScenario.node[21].veinsmobility 	minSpeed 	0.25940950527834
scalar RSUExampleScenario.node[21].veinsmobility 	maxSpeed 	18.999800366545
scalar RSUExampleScenario.node[21].veinsmobility 	totalDistance 	3409.7855742674
scalar RSUExampleScenario.node[21].veinsmobility 	totalCO2Emission 	707.5546405981
scalar RSUExampleScenario.node[22].veinsmobility 	startTime 	132.1
scalar RSUExampleScenario.node[22].veinsmobility 	totalTime 	226.5
scalar RSUExampleScenario.node[22].veinsmobility 	stopTime 	358.7
scalar RSUExampleScenario.node[22].veinsmobility 	minSpeed 	0.24921752097248
scalar RSUExampleScenario.node[22].veinsmobility 	maxSpeed 	18.999612901486
scalar RSUExampleScenario.node[22].veinsmobility 	totalDistance 	3409.2862579155
scalar RSUExampleScenario.node[22].veinsmobility 	totalCO2Emission 	709.5165203353
scalar RSUExampleScenario.node[23].veinsmobility 	startTime 	138.1
scalar RSUExampleScenario.node[23].veinsmobility 	totalTime 	226.9
scalar RSUExampleScenario.node[23].veinsmobility 	stopTime 	365.1
scalar RSUExampleScenario.node[23].veinsmobility 	minSpeed 	0.25892417055485
scalar RSUExampleScenario.node[23].veinsmobility 	maxSpeed 	18.999827500097
scalar RSUExampleScenario.node[23].veinsmobility 	totalDistance 	3409.4944658039
scalar RSUExampleScenario.node[23].veinsmobility 	totalCO2Emission 	709.52184149269
scalar RSUExampleScenario.node[24].veinsmobility 	startTime 	144.1
scalar RSUExampleScenario.node[24].veinsmobility 	totalTime 	226.8
scalar RSUExampleScenario.node[24].veinsmobility 	stopTime 	371
scalar RSUExampleScenario.node[24].veinsmobility 	minSpeed 	0.2571216461428
scalar RSUExampleScenario.node[24].veinsmobility 	maxSpeed 	18.999981136629
scalar RSUExampleScenario.node[24].veinsmobility 	totalDistance 	3409.4238508894
scalar RSUExampleScenario.node[24].veinsmobility 	totalCO2Emission 	706.84117253372
scalar RSUExampleScenario.node[25].veinsmobility 	startTime 	150.1
scalar RSUExampleScenario.node[25].veinsmobility 	totalTime 	227.2
scalar RSUExampleScenario.node[25].veinsmobility 	stopTime 	377.4
scalar RSUExampleScenario.node[25].veinsmobility 	minSpeed 	0.24945153174992
scalar RSUExampleScenario.node[25].veinsmobility 	maxSpeed 	18.999948487463
scalar RSUExampleScenario.node[25].veinsmobility 	totalDistance 	3409.4463533405
scalar RSUExampleScenario.node[25].veinsmobility 	totalCO2Emission 	709.59327669085
scalar RSUExampleScenario.node[26].veinsmobility 	startTime 	156.1
scalar RSUExampleScenario.node[26].veinsmobility 	totalTime 	226.9
scalar RSUExampleScenario.node[26].veinsmobility 	stopTime 	383.1
scalar RSUExampleScenario.node[26].veinsmobility 	minSpeed 	0.24716634197207
scalar RSUExampleScenario.node[26].veinsmobility 	maxSpeed 	18.999720487006
scalar RSUExampleScenario.node[26].veinsmobility 	totalDistance 	3409.5532382272
scalar RSUExampleScenario.node[26].veinsmobility 	totalCO2Emission 	708.35346135755
scalar RSUExampleScenario.node[27].veinsmobility 	startTime 	162.1
scalar RSUExampleScenario.node[27].veinsmobility 	totalTime 	226.6
scalar RSUExampleScenario.node[27].veinsmobility 	stopTime 	388.8
scalar RSUExampleScenario.node[27].veinsmobility 	minSpeed 	0.25860255366005
scalar RSUExampleScenario.node[27].veinsmobility 	maxSpeed 	18.99987730779
scalar RSUExampleScenario.node[27].veinsmobility 	totalDistance 	3409.6417160915
scalar RSUExampleScenario.node[27].veinsmobility 	totalCO2Emission 	705.52758133369
scalar RSUExampleScenario.node[28].veinsmobility 	startTime 	168.1
scalar RSUExampleScenario.node[28].veinsmobility 	totalTime 	226.9
scalar RSUExampleScenario.node[28].veinsmobility 	stopTime 	395.1
scalar RSUExampleScenario.node[28].veinsmobility 	minSpeed 	0.24895485534053
scalar RSUExampleScenario.node[28].veinsmobility 	maxSpeed 	18.999974645358
scalar RSUExampleScenario.node[28].veinsmobility 	totalDistance 	3409.2920058202
scalar RSUExampleScenario.node[28].veinsmobility 	totalCO2Emission 	706.06427164305
scalar RSUExampleScenario.node[29].veinsmobility 	startTime 	174.1
scalar RSUExampleScenario.node[29].veinsmobility 	totalTime 	227
scalar RSUExampleScenario.node[29].veinsmobility 	stopTime 	401.2
scalar RSUExampleScenario.node[29].veinsmobility 	minSpeed 	0.25013603225769
scalar RSUExampleScenario.node[29].veinsmobility 	maxSpeed 	18.999825457614
scalar RSUExampleScenario.node[29].veinsmobility 	totalDistance 	3409.6384874881
scalar RSUExampleScenario.node[29].veinsmobility 	totalCO2Emission 	708.82526341838
scalar RSUExampleScenario.node[30].veinsmobility 	startTime 	180.1
scalar RSUExampleScenario.node[30].veinsmobility 	totalTime 	226.7
scalar RSUExampleScenario.node[30].veinsmobility 	stopTime 	406.9
scalar RSUExampleScenario.node[30].veinsmobility 	minSpeed 	0.2514510561116
scalar RSUExampleScenario.node[30].veinsmobility 	maxSpeed 	18.99977622583
scalar RSUExampleScenario.node[30].veinsmobility 	totalDistance 	3409.3172598752
scalar RSUExampleScenario.node[30].veinsmobility 	totalCO2Emission 	710.71629846501
scalar RSUExampleScenario.node[31].veinsmobility 	startTime 	186.1
scalar RSUExampleScenario.node[31].veinsmobility 	totalTime 	227
scalar RSUExampleScenario.node[31].veinsmobility 	stopTime 	413.2
scalar RSUExampleScenario.node[31].veinsmobility 	minSpeed 	0.25597984949173
scalar RSUExampleScenario.node[31].veinsmobility 	maxSpeed 	18.999869659464
scalar RSUExampleScenario.node[31].veinsmobility 	totalDistance 	3409.3404076595
scalar RSUExampleScenario.node[31].veinsmobility 	totalCO2Emission 	706.17372203959
scalar RSUExampleScenario.node[32].veinsmobility 	startTime 	192.1
scalar RSUExampleScenario.node[32].veinsmobility 	totalTime 	226.8
scalar RSUExampleScenario.node[32].veinsmobility 	stopTime 	419
scalar RSUExampleScenario.node[32].veinsmobility 	minSpeed 	0.24701253342116
scalar RSUExampleScenario.node[32].veinsmobility 	maxSpeed 	18.999980502545
scalar RSUExampleScenario.node[32].veinsmobility 	totalDistance 	3409.2896987695
scalar RSUExampleScenario.node[32].veinsmobility 	totalCO2Emission 	711.8325916679
scalar RSUExampleScenario.node[33].veinsmobility 	startTime 	198.1
scalar RSUExampleScenario.node[33].veinsmobility 	totalTime 	226.9
scalar RSUExampleScenario.node[33].veinsmobility 	stopTime 	425.1
scalar RSUExampleScenario.node[33].veinsmobility 	minSpeed 	0.25429469238268
scalar RSUExampleScenario.node[33].veinsmobility 	maxSpeed 	18.999925511945
scalar RSUExampleScenario.node[33].veinsmobility 	totalDistance 	3409.5198169295
scalar RSUExampleScenario.node[33].veinsmobility 	totalCO2Emission 	710.4000826861
scalar RSUExampleScenario.node[34].veinsmobility 	startTime 	204.1
scalar RSUExampleScenario.node[34].veinsmobility 	totalTime 	227.1
scalar RSUExampleScenario.node[34].veinsmobility 	stopTime 	431.3
scalar RSUExampleScenario.node[34].veinsmobility 	minSpeed 	0.25399299247796
scalar RSUExampleScenario.node[34].veinsmobility 	maxSpeed 	18.999937294545
scalar RSUExampleScenario.node[34].veinsmobility 	totalDistance 	3409.4891739718
scalar RSUExampleScenario.node[34].veinsmobility 	totalCO2Emission 	704.25408967607
scalar RSUExampleScenario.node[35].veinsmobility 	startTime 	210.1
scalar RSUExampleScenario.node[35].veinsmobility 	totalTime 	227
scalar RSUExampleScenario.node[35].veinsmobility 	stopTime 	437.2
scalar RSUExampleScenario.node[35].veinsmobility 	minSpeed 	0.2560755011721
scalar RSUExampleScenario.node[35].veinsmobility 	maxSpeed 	18.999726718185
scalar RSUExampleScenario.node[35].veinsmobility 	totalDistance 	3409.078795148
scalar RSUExampleScenario.node[35].veinsmobility 	totalCO2Emission 	703.37273825826
scalar RSUExampleScenario.node[36].veinsmobility 	startTime 	216.1
scalar RSUExampleScenario.node[36].veinsmobility 	totalTime 	226.8
scalar RSUExampleScenario.node[36].veinsmobility 	stopTime 	443
scalar RSUExampleScenario.node[36].veinsmobility 	minSpeed 	0.24794276385219
scalar RSUExampleScenario.node[36].veinsmobility 	maxSpeed 	18.999930874645
scalar RSUExampleScenario.node[36].veinsmobility 	totalDistance 	3409.4088949143
scalar RSUExampleScenario.node[36].veinsmobility 	totalCO2Emission 	704.78394215108
scalar RSUExampleScenario.node[37].veinsmobility 	startTime 	222.1
scalar RSUExampleScenario.node[37].veinsmobility 	totalTime 	227
scalar RSUExampleScenario.node[37].veinsmobility 	stopTime 	449.2
scalar RSUExampleScenario.node[37].veinsmobility 	minSpeed 	0.25087413182855
scalar RSUExampleScenario.node[37].veinsmobility 	maxSpeed 	18.999933109693
scalar RSUExampleScenario.node[37].veinsmobility 	totalDistance 	3409.6157449298
scalar RSUExampleScenario.node[37].veinsmobility 	totalCO2Emission 	707.7457193262
scalar RSUExampleScenario.node[38].veinsmobility 	startTime 	228.1
scalar RSUExampleScenario.node[38].veinsmobility 	totalTime 	227.1
scalar RSUExampleScenario.node[38].veinsmobility 	stopTime 	455.3
scalar RSUExampleScenario.node[38].veinsmobility 	minSpeed 	0.25667692183983
scalar RSUExampleScenario.node[38].veinsmobility 	maxSpeed 	18.999515521482
scalar RSUExampleScenario.node[38].veinsmobility 	totalDistance 	3409.6340907783
scalar RSUExampleScenario.node[38].veinsmobility 	totalCO2Emission 	706.54467720953
scalar RSUExampleScenario.node[39].veinsmobility 	startTime 	234.1
scalar RSUExampleScenario.node[39].veinsmobility 	totalTime 	227.2
scalar RSUExampleScenario.node[39].veinsmobility 	stopTime 	461.4
scalar RSUExampleScenario.node[39].veinsmobility 	minSpeed 	0.25049558124086
scalar RSUExampleScenario.node[39].veinsmobility 	maxSpeed 	18.999293242188
scalar RSUExampleScenario.node[39].veinsmobility 	totalDistance 	3409.7836647904
scalar RSUExampleScenario.node[39].veinsmobility 	totalCO2Emission 	706.02663284479
scalar RSUExampleScenario.node[40].veinsmobility 	startTime 	240.1
scalar RSUExampleScenario.node[40].veinsmobility 	totalTime 	226.9
scalar RSUExampleScenario.node[40].veinsmobility 	stopTime 	467.1
scalar RSUExampleScenario.node[40].veinsmobility 	minSpeed 	0.25757535664085
scalar RSUExampleScenario.node[40].veinsmobility 	maxSpeed 	18.999941102893
scalar RSUExampleScenario.node[40].veinsmobility 	totalDistance 	3409.5604328595
scalar RSUExampleScenario.node[40].veinsmobility 	totalCO2Emission 	708.98651360531
scalar RSUExampleScenario.node[41].veinsmobility 	startTime 	246.1
scalar RSUExampleScenario.node[41].veinsmobility 	totalTime 	226.8
scalar RSUExampleScenario.node[41].veinsmobility 	stopTime 	473
scalar RSUExampleScenario.node[41].veinsmobility 	minSpeed 	0.24846158778411
scalar RSUExampleScenario.node[41].veinsmobility 	maxSpeed 	18.999962280735
scalar RSUExampleScenario.node[41].veinsmobility 	totalDistance 	3409.907773314
scalar RSUExampleScenario.node[41].veinsmobility 	totalCO2Emission 	709.38589044667
scalar RSUExampleScenario.node[42].veinsmobility 	startTime 	252.1
scalar RSUExampleScenario.node[42].veinsmobility 	totalTime 	226.6
scalar RSUExampleScenario.node[42].veinsmobility 	stopTime 	478.8
scalar RSUExampleScenario.node[42].veinsmobility 	minSpeed 	0.25029087571637
scalar RSUExampleScenario.node[42].veinsmobility 	maxSpeed 	18.999955480124
scalar RSUExampleScenario.node[42].veinsmobility 	totalDistance 	3409.5665693723
scalar RSUExampleScenario.node[42].veinsmobility 	totalCO2Emission 	709.25230891119
scalar RSUExampleScenario.node[43].veinsmobility 	startTime 	258.1
scalar RSUExampleScenario.node[43].veinsmobility 	totalTime 	226.9
scalar RSUExampleScenario.node[43].veinsmobility 	stopTime 	485.1
scalar RSUExampleScenario.node[43].veinsmobility 	minSpeed 	0.25103627468692
scalar RSUExampleScenario.node[43].veinsmobility 	maxSpeed 	18.999507860625
scalar RSUExampleScenario.node[43].veinsmobility 	totalDistance 	3409.3693843975
scalar RSUExampleScenario.node[43].veinsmobility 	totalCO2Emission 	703.11754516293
scalar RSUExampleScenario.node[44].veinsmobility 	startTime 	264.1
scalar RSUExampleScenario.node[44].veinsmobility 	totalTime 	226.7
scalar RSUExampleScenario.node[44].veinsmobility 	stopTime 	490.9
scalar RSUExampleScenario.node[44].veinsmobility 	minSpeed 	0.25999689447158
scalar RSUExampleScenario.node[44].veinsmobility 	maxSpeed 	18.999865754531
scalar RSUExampleScenario.node[44].veinsmobility 	totalDistance 	3409.3463756519
scalar RSUExampleScenario.node[44].veinsmobility 	totalCO2Emission 	708.00002108454
scalar RSUExampleScenario.node[45].veinsmobility 	startTime 	270.1
scalar RSUExampleScenario.node[45].veinsmobility 	totalTime 	227.1
scalar RSUExampleScenario.node[45].veinsmobility 	stopTime 	497.3
scalar RSUExampleScenario.node[45].veinsmobility 	minSpeed 	0.25554847119935
scalar RSUExampleScenario.node[45].veinsmobility 	maxSpeed 	18.999820404646
scalar RSUExampleScenario.node[45].veinsmobility 	totalDistance 	3409.5593338744
scalar RSUExampleScenario.node[45].veinsmobility 	totalCO2Emission 	710.64130028541
scalar RSUExampleScenario.node[46].veinsmobility 	startTime 	276.1
scalar RSUExampleScenario.node[46].veinsmobility 	totalTime 	226.9
scalar RSUExampleScenario.node[46].veinsmobility 	stopTime 	503.1
scalar RSUExampleScenario.node[46].veinsmobility 	minSpeed 	0.25987302747322
scalar RSUExampleScenario.node[46].veinsmobility 	maxSpeed 	18.999749220463
scalar RSUExampleScenario.node[46].veinsmobility 	totalDistance 	3409.4921423275
scalar RSUExampleScenario.node[46].veinsmobility 	totalCO2Emission 	702.62496603513
scalar RSUExampleScenario.node[47].veinsmobility 	startTime 	282.1
scalar RSUExampleScenario.node[47].veinsmobility 	totalTime 	227
scalar RSUExampleScenario.node[47].veinsmobility 	stopTime 	509.2
scalar RSUExampleScenario.node[47].veinsmobility 	minSpeed 	0.25696632823953
scalar RSUExampleScenario.node[47].veinsmobility 	maxSpeed 	18.99945218164
scalar RSUExampleScenario.node[47].veinsmobility 	totalDistance 	3409.2165454813
scalar RSUExampleScenario.node[47].veinsmobility 	totalCO2Emission 	709.00355471458
scalar RSUExampleScenario.node[48].veinsmobility 	startTime 	288.1
scalar RSUExampleScenario.node[48].veinsmobility 	totalTime 	226.9
scalar RSUExampleScenario.node[48].veinsmobility 	stopTime 	515.1
scalar RSUExampleScenario.node[48].veinsmobility 	minSpeed 	0.2516109635341
scalar RSUExampleScenario.node[48].veinsmobility 	maxSpeed 	18.999906618942
scalar RSUExampleScenario.node[48].veinsmobility 	totalDistance 	3409.493718263
scalar RSUExampleScenario.node[48].veinsmobility 	totalCO2Emission 	702.83213638645
scalar RSUExampleScenario.node[49].veinsmobility 	startTime 	294.1
scalar RSUExampleScenario.node[49].veinsmobility 	totalTime 	227.1
scalar RSUExampleScenario.node[49].veinsmobility 	stopTime 	521.3
scalar RSUExampleScenario.node[49].veinsmobility 	minSpeed 	0.25766159201809
scalar RSUExampleScenario.node[49].veinsmobility 	maxSpeed 	18.999661943489
scalar RSUExampleScenario.node[49].veinsmobility 	totalDistance 	3409.41382868
scalar RSUExampleScenario.node[49].veinsmobility 	totalCO2Emission 	706.9364352056
scalar RSUExampleScenario.node[50].veinsmobility 	startTime 	300.1
scalar RSUExampleScenario.node[50].veinsmobility 	totalTime 	226.9
scalar RSUExampleScenario.node[50].veinsmobility 	stopTime 	527.1
scalar RSUExampleScenario.node[50].veinsmobility 	minSpeed 	0.25791328224912
scalar RSUExampleScenario.node[50].veinsmobility 	maxSpeed 	18.99999712439
scalar RSUExampleScenario.node[50].veinsmobility 	totalDistance 	3409.6073147718
scalar RSUExampleScenario.node[50].veinsmobility 	totalCO2Emission 	709.11210009969
scalar RSUExampleScenario.node[51].veinsmobility 	startTime 	306.1
scalar RSUExampleScenario.node[51].veinsmobility 	totalTime 	227.1
scalar RSUExampleScenario.node[51].veinsmobility 	stopTime 	533.3
scalar RSUExampleScenario.node[51].veinsmobility 	minSpeed 	0.25763148994534
scalar RSUExampleScenario.node[51].veinsmobility 	maxSpeed 	18.999667177822
scalar RSUExampleScenario.node[51].veinsmobility 	totalDistance 	3409.5995550075
scalar RSUExampleScenario.node[51].veinsmobility 	totalCO2Emission 	704.31735950494
scalar RSUExampleScenario.node[52].veinsmobility 	startTime 	312.1
scalar RSUExampleScenario.node[52].veinsmobility 	totalTime 	226.8
scalar RSUExampleScenario.node[52].veinsmobility 	stopTime 	539
scalar RSUExampleScenario.node[52].veinsmobility 	minSpeed 	0.25367644127831
scalar RSUExampleScenario.node[52].veinsmobility 	maxSpeed 	18.9997787727
scalar RSUExampleScenario.node[52].veinsmobility 	totalDistance 	3409.3006511394
scalar RSUExampleScenario.node[52].veinsmobility 	totalCO2Emission 	704.82244009898
scalar RSUExampleScenario.node[53].veinsmobility 	startTime 	318.1
scalar RSUExampleScenario.node[53].veinsmobility 	totalTime 	226.8
scalar RSUExampleScenario.node[53].veinsmobility 	stopTime 	545
scalar RSUExampleScenario.node[53].veinsmobility 	minSpeed 	0.2559112127556
scalar RSUExampleScenario.node[53].veinsmobility 	maxSpeed 	18.999904947877
scalar RSUExampleScenario.node[53].veinsmobility 	totalDistance 	3409.6922592362
scalar RSUExampleScenario.node[53].veinsmobility 	totalCO2Emission 	707.10718407188
scalar RSUExampleScenario.node[54].veinsmobility 	startTime 	324.1
scalar RSUExampleScenario.node[54].veinsmobility 	totalTime 	226.7
scalar RSUExampleScenario.node[54].veinsmobility 	stopTime 	550.9
scalar RSUExampleScenario.node[54].veinsmobility 	minSpeed 	0.24970288726245
scalar RSUExampleScenario.node[54].veinsmobility 	maxSpeed 	18.999149084499
scalar RSUExampleScenario.node[54].veinsmobility 	totalDistance 	3409.9328567352
scalar RSUExampleScenario.node[54].veinsmobility 	totalCO2Emission 	709.81681899563
scalar RSUExampleScenario.node[55].veinsmobility 	startTime 	330.1
scalar RSUExampleScenario.node[55].veinsmobility 	totalTime 	227
scalar RSUExampleScenario.node[55].veinsmobility 	stopTime 	557.2
scalar RSUExampleScenario.node[55].veinsmobility 	minSpeed 	0.254141921615
scalar RSUExampleScenario.node[55].veinsmobility 	maxSpeed 	18.999571179159
scalar RSUExampleScenario.node[55].veinsmobility 	totalDistance 	3409.135268536
scalar RSUExampleScenario.node[55].veinsmobility 	totalCO2Emission 	703.07355586388
scalar RSUExampleScenario.node[56].veinsmobility 	startTime 	336.1
scalar RSUExampleScenario.node[56].veinsmobility 	totalTime 	226.9
scalar RSUExampleScenario.node[56].veinsmobility 	stopTime 	563.1
scalar RSUExampleScenario.node[56].veinsmobility 	minSpeed 	0.25018276188988
scalar RSUExampleScenario.node[56].veinsmobility 	maxSpeed 	18.999924063138
scalar RSUExampleScenario.node[56].veinsmobility 	totalDistance 	3409.4718739883
scalar RSUExampleScenario.node[56].veinsmobility 	totalCO2Emission 	702.16452276649
scalar RSUExampleScenario.node[57].veinsmobility 	startTime 	342.1
scalar RSUExampleScenario.node[57].veinsmobility 	totalTime 	227
scalar RSUExampleScenario.node[57].veinsmobility 	stopTime 	569.2
scalar RSUExampleScenario.node[57].veinsmobility 	minSpeed 	0.25420086966944
scalar RSUExampleScenario.node[57].veinsmobility 	maxSpeed 	18.999580582331
scalar RSUExampleScenario.node[57].veinsmobility 	totalDistance 	3409.3115036734
scalar RSUExampleScenario.node[57].veinsmobility 	totalCO2Emission 	709.82489087262
scalar RSUExampleScenario.node[58].veinsmobility 	startTime 	348.1
scalar RSUExampleScenario.node[58].veinsmobility 	totalTime 	227
scalar RSUExampleScenario.node[58].veinsmobility 	stopTime 	575.2
scalar RSUExampleScenario.node[58].veinsmobility 	minSpeed 	0.25423988298769
scalar RSUExampleScenario.node[58].veinsmobility 	maxSpeed 	18.999728503088
scalar RSUExampleScenario.node[58].veinsmobility 	totalDistance 	3409.0899426501
scalar RSUExampleScenario.node[58].veinsmobility 	totalCO2Emission 	704.25830584216
scalar RSUExampleScenario.node[59].veinsmobility 	startTime 	354.1
scalar RSUExampleScenario.node[59].veinsmobility 	totalTime 	226.8
scalar RSUExampleScenario.node[59].veinsmobility 	stopTime 	581
scalar RSUExampleScenario.node[59].veinsmobility 	minSpeed 	0.25289069792163
scalar RSUExampleScenario.node[59].veinsmobility 	maxSpeed 	18.99992214663
scalar RSUExampleScenario.node[59].veinsmobility 	totalDistance 	3409.3601112192
scalar RSUExampleScenario.node[59].veinsmobility 	totalCO2Emission 	706.37958038356
scalar RSUExampleScenario.node[60].veinsmobility 	startTime 	360.1
scalar RSUExampleScenario.node[60].veinsmobility 	totalTime 	227
scalar RSUExampleScenario.node[60].veinsmobility 	stopTime 	587.2
scalar RSUExampleScenario.node[60].veinsmobility 	minSpeed 	0.24997158208303
scalar RSUExampleScenario.node[60].veinsmobility 	maxSpeed 	18.999938178884
scalar RSUExampleScenario.node[60].veinsmobility 	totalDistance 	3409.4760077666
scalar RSUExampleScenario.node[60].veinsmobility 	totalCO2Emission 	707.81017671262
scalar RSUExampleScenario.node[61].veinsmobility 	startTime 	366.1
scalar RSUExampleScenario.node[61].veinsmobility 	totalTime 	226.9
scalar RSUExampleScenario.node[61].veinsmobility 	stopTime 	593.1
scalar RSUExampleScenario.node[61].veinsmobility 	minSpeed 	0.25070596404024
scalar RSUExampleScenario.node[61].veinsmobility 	maxSpeed 	18.999473541847
scalar RSUExampleScenario.node[61].veinsmobility 	totalDistance 	3409.1369681805
scalar RSUExampleScenario.node[61].veinsmobility 	totalCO2Emission 	708.54717991628
scalar RSUExampleScenario.node[62].veinsmobility 	startTime 	372.1
scalar RSUExampleScenario.node[62].veinsmobility 	totalTime 	226.7
scalar RSUExampleScenario.node[62].veinsmobility 	stopTime 	598.9
scalar RSUExampleScenario.node[62].veinsmobility 	minSpeed 	0.25148360569589
scalar RSUExampleScenario.node[62].veinsmobility 	maxSpeed 	18.999916307693
scalar RSUExampleScenario.node[62].veinsmobility 	totalDistance 	3409.7603391556
scalar RSUExampleScenario.node[62].veinsmobility 	totalCO2Emission 	704.03375917007
scalar RSUExampleScenario.node[63].veinsmobility 	startTime 	378.1
scalar RSUExampleScenario.node[63].veinsmobility 	totalTime 	227.3
scalar RSUExampleScenario.node[63].veinsmobility 	stopTime 	605.5
scalar RSUExampleScenario.node[63].veinsmobility 	minSpeed 	0.24840348188789
scalar RSUExampleScenario.node[63].veinsmobility 	maxSpeed 	18.999694120837
scalar RSUExampleScenario.node[63].veinsmobility 	totalDistance 	3409.4996742798
scalar RSUExampleScenario.node[63].veinsmobility 	totalCO2Emission 	708.67581584241
scalar RSUExampleScenario.node[64].veinsmobility 	startTime 	384.1
scalar RSUExampleScenario.node[64].veinsmobility 	totalTime 	226.8
scalar RSUExampleScenario.node[64].veinsmobility 	stopTime 	611
scalar RSUExampleScenario.node[64].veinsmobility 	minSpeed 	0.25196208645846
scalar RSUExampleScenario.node[64].veinsmobility 	maxSpeed 	18.99996935627
scalar RSUExampleScenario.node[64].veinsmobility 	totalDistance 	3409.535241661
scalar RSUExampleScenario.node[64].veinsmobility 	totalCO2Emission 	704.28536215859
scalar RSUExampleScenario.node[65].veinsmobility 	startTime 	390.1
scalar RSUExampleScenario.node[65].veinsmobility 	totalTime 	226.9
scalar RSUExampleScenario.node[65].veinsmobility 	stopTime 	617.1
scalar RSUExampleScenario.node[65].veinsmobility 	minSpeed 	0.25225970665063
scalar RSUExampleScenario.node[65].veinsmobility 	maxSpeed 	18.999943037985
scalar RSUExampleScenario.node[65].veinsmobility 	totalDistance 	3409.3721924115
scalar RSUExampleScenario.node[65].veinsmobility 	totalCO2Emission 	704.79958327639
scalar RSUExampleScenario.node[66].veinsmobility 	startTime 	396.1
scalar RSUExampleScenario.node[66].veinsmobility 	totalTime 	226.9
scalar RSUExampleScenario.node[66].veinsmobility 	stopTime 	623.1
scalar RSUExampleScenario.node[66].veinsmobility 	minSpeed 	0.25244994276529
scalar RSUExampleScenario.node[66].veinsmobility 	maxSpeed 	18.999970094415
scalar RSUExampleScenario.node[66].veinsmobility 	totalDistance 	3409.3091007611
scalar RSUExampleScenario.node[66].veinsmobility 	totalCO2Emission 	709.97538669178
scalar RSUExampleScenario.node[67].veinsmobility 	startTime 	402.1
scalar RSUExampleScenario.node[67].veinsmobility 	totalTime 	226.8
scalar RSUExampleScenario.node[67].veinsmobility 	stopTime 	629
scalar RSUExampleScenario.node[67].veinsmobility 	minSpeed 	0.25318549848464
scalar RSUExampleScenario.node[67].veinsmobility 	maxSpeed 	18.999861721019
scalar RSUExampleScenario.node[67].veinsmobility 	totalDistance 	3409.3243609373
scalar RSUExampleScenario.node[67].veinsmobility 	totalCO2Emission 	705.23693826326
scalar RSUExampleScenario.node[68].veinsmobility 	startTime 	408.1
scalar RSUExampleScenario.node[68].veinsmobility 	totalTime 	226.9
scalar RSUExampleScenario.node[68].veinsmobility 	stopTime 	635.1
scalar RSUExampleScenario.node[68].veinsmobility 	minSpeed 	0.25622191470372
scalar RSUExampleScenario.node[68].veinsmobility 	maxSpeed 	18.99936684557
scalar RSUExampleScenario.node[68].veinsmobility 	totalDistance 	3409.2123393775
scalar RSUExampleScenario.node[68].veinsmobility 	totalCO2Emission 	706.11631258096
scalar RSUExampleScenario.node[69].veinsmobility 	startTime 	414.1
scalar RSUExampleScenario.node[69].veinsmobility 	totalTime 	226.8
scalar RSUExampleScenario.node[69].veinsmobility 	stopTime 	641
scalar RSUExampleScenario.node[69].veinsmobility 	minSpeed 	0.25115691292984
scalar RSUExampleScenario.node[69].veinsmobility 	maxSpeed 	18.99991761636
scalar RSUExampleScenario.node[69].veinsmobility 	totalDistance 	3409.2324896495
scalar RSUExampleScenario.node[69].veinsmobility 	totalCO2Emission 	704.00557183853
scalar RSUExampleScenario.node[70].veinsmobility 	startTime 	420.1
scalar RSUExampleScenario.node[70].veinsmobility 	totalTime 	226.8
scalar RSUExampleScenario.node[70].veinsmobility 	stopTime 	647
scalar RSUExampleScenario.node[70].veinsmobility 	minSpeed 	0.25406514055445
scalar RSUExampleScenario.node[70].veinsmobility 	maxSpeed 	18.999914141777
scalar RSUExampleScenario.node[70].veinsmobility 	totalDistance 	3409.1344586889
scalar RSUExampleScenario.node[70].veinsmobility 	totalCO2Emission 	707.83062482662
scalar RSUExampleScenario.node[71].veinsmobility 	startTime 	426.1
scalar RSUExampleScenario.node[71].veinsmobility 	totalTime 	226.8
scalar RSUExampleScenario.node[71].veinsmobility 	stopTime 	653
scalar RSUExampleScenario.node[71].veinsmobility 	minSpeed 	0.25661382811586
scalar RSUExampleScenario.node[71].veinsmobility 	maxSpeed 	18.999883623235
scalar RSUExampleScenario.node[71].veinsmobility 	totalDistance 	3409.9246338762
scalar RSUExampleScenario.node[71].veinsmobility 	totalCO2Emission 	707.31410153448
scalar RSUExampleScenario.node[72].veinsmobility 	startTime 	432.1
scalar RSUExampleScenario.node[72].veinsmobility 	totalTime 	227
scalar RSUExampleScenario.node[72].veinsmobility 	stopTime 	659.2
scalar RSUExampleScenario.node[72].veinsmobility 	minSpeed 	0.24996690314007
scalar RSUExampleScenario.node[72].veinsmobility 	maxSpeed 	18.999680580455
scalar RSUExampleScenario.node[72].veinsmobility 	totalDistance 	3409.1005708403
scalar RSUExampleScenario.node[72].veinsmobility 	totalCO2Emission 	712.22518484612
scalar RSUExampleScenario.node[73].veinsmobility 	startTime 	438.1
scalar RSUExampleScenario.node[73].veinsmobility 	totalTime 	227
scalar RSUExampleScenario.node[73].veinsmobility 	stopTime 	665.2
scalar RSUExampleScenario.node[73].veinsmobility 	minSpeed 	0.25984130330896
scalar RSUExampleScenario.node[73].veinsmobility 	maxSpeed 	18.999827748386
scalar RSUExampleScenario.node[73].veinsmobility 	totalDistance 	3410.0376997339
scalar RSUExampleScenario.node[73].veinsmobility 	totalCO2Emission 	708.89807127193
scalar RSUExampleScenario.node[74].veinsmobility 	startTime 	444.1
scalar RSUExampleScenario.node[74].veinsmobility 	totalTime 	226.8
scalar RSUExampleScenario.node[74].veinsmobility 	stopTime 	671
scalar RSUExampleScenario.node[74].veinsmobility 	minSpeed 	0.24864563153544
scalar RSUExampleScenario.node[74].veinsmobility 	maxSpeed 	18.999899593652
scalar RSUExampleScenario.node[74].veinsmobility 	totalDistance 	3409.6749284525
scalar RSUExampleScenario.node[74].veinsmobility 	totalCO2Emission 	705.39442327969
scalar RSUExampleScenario.node[75].veinsmobility 	startTime 	450.1
scalar RSUExampleScenario.node[75].veinsmobility 	totalTime 	226.8
scalar RSUExampleScenario.node[75].veinsmobility 	stopTime 	677
scalar RSUExampleScenario.node[75].veinsmobility 	minSpeed 	0.24948357426375
scalar RSUExampleScenario.node[75].veinsmobility 	maxSpeed 	18.99979288551
scalar RSUExampleScenario.node[75].veinsmobility 	totalDistance 	3409.3940324999
scalar RSUExampleScenario.node[75].veinsmobility 	totalCO2Emission 	710.51994631001
scalar RSUExampleScenario.node[76].veinsmobility 	startTime 	456.1
scalar RSUExampleScenario.node[76].veinsmobility 	totalTime 	227
scalar RSUExampleScenario.node[76].veinsmobility 	stopTime 	683.2
scalar RSUExampleScenario.node[76].veinsmobility 	minSpeed 	0.25516735951346
scalar RSUExampleScenario.node[76].veinsmobility 	maxSpeed 	18.999932051464
scalar RSUExampleScenario.node[76].veinsmobility 	totalDistance 	3409.5234655608
scalar RSUExampleScenario.node[76].veinsmobility 	totalCO2Emission 	706.25789820957
scalar RSUExampleScenario.node[77].veinsmobility 	startTime 	462.1
scalar RSUExampleScenario.node[77].veinsmobility 	totalTime 	227
scalar RSUExampleScenario.node[77].veinsmobility 	stopTime 	689.2
scalar RSUExampleScenario.node[77].veinsmobility 	minSpeed 	0.24902037268551
scalar RSUExampleScenario.node[77].veinsmobility 	maxSpeed 	18.999827770179
scalar RSUExampleScenario.node[77].veinsmobility 	totalDistance 	3409.2146844682
scalar RSUExampleScenario.node[77].veinsmobility 	totalCO2Emission 	706.4484270605
scalar RSUExampleScenario.node[78].veinsmobility 	startTime 	468.1
scalar RSUExampleScenario.node[78].veinsmobility 	totalTime 	226.8
scalar RSUExampleScenario.node[78].veinsmobility 	stopTime 	695
scalar RSUExampleScenario.node[78].veinsmobility 	minSpeed 	0.25756338993926
scalar RSUExampleScenario.node[78].veinsmobility 	maxSpeed 	18.999947311159
scalar RSUExampleScenario.node[78].veinsmobility 	totalDistance 	3409.1373379674
scalar RSUExampleScenario.node[78].veinsmobility 	totalCO2Emission 	709.85201995819
scalar RSUExampleScenario.node[79].veinsmobility 	startTime 	474.1
scalar RSUExampleScenario.node[79].veinsmobility 	totalTime 	227
scalar RSUExampleScenario.node[79].veinsmobility 	stopTime 	701.2
scalar RSUExampleScenario.node[79].veinsmobility 	minSpeed 	0.25305050273263
scalar RSUExampleScenario.node[79].veinsmobility 	maxSpeed 	18.999704479813
scalar RSUExampleScenario.node[79].veinsmobility 	totalDistance 	3409.2203617751
scalar RSUExampleScenario.node[79].veinsmobility 	totalCO2Emission 	706.92854280088
scalar RSUExampleScenario.node[80].veinsmobility 	startTime 	480.1
scalar RSUExampleScenario.node[80].veinsmobility 	totalTime 	226.7
scalar RSUExampleScenario.node[80].veinsmobility 	stopTime 	706.9
scalar RSUExampleScenario.node[80].veinsmobility 	minSpeed 	0.24736995994975
scalar RSUExampleScenario.node[80].veinsmobility 	maxSpeed 	18.99994989211
scalar RSUExampleScenario.node[80].veinsmobility 	totalDistance 	3409.776394672
scalar RSUExampleScenario.node[80].veinsmobility 	totalCO2Emission 	703.25517825967
scalar RSUExampleScenario.node[81].veinsmobility 	startTime 	486.1
scalar RSUExampleScenario.node[81].veinsmobility 	totalTime 	226.7
scalar RSUExampleScenario.node[81].veinsmobility 	stopTime 	712.9
scalar RSUExampleScenario.node[81].veinsmobility 	minSpeed 	0.25735299660661
scalar RSUExampleScenario.node[81].veinsmobility 	maxSpeed 	18.999896949471
scalar RSUExampleScenario.node[81].veinsmobility 	totalDistance 	3409.2438062197
scalar RSUExampleScenario.node[81].veinsmobility 	totalCO2Emission 	702.36971007599
scalar RSUExampleScenario.node[82].veinsmobility 	startTime 	492.1
scalar RSUExampleScenario.node[82].veinsmobility 	totalTime 	227.1
scalar RSUExampleScenario.node[82].veinsmobility 	stopTime 	719.3
scalar RSUExampleScenario.node[82].veinsmobility 	minSpeed 	0.2545080239526
scalar RSUExampleScenario.node[82].veinsmobility 	maxSpeed 	18.999749037463
scalar RSUExampleScenario.node[82].veinsmobility 	totalDistance 	3409.2444218561
scalar RSUExampleScenario.node[82].veinsmobility 	totalCO2Emission 	707.56615744502
scalar RSUExampleScenario.node[83].veinsmobility 	startTime 	498.1
scalar RSUExampleScenario.node[83].veinsmobility 	totalTime 	226.9
scalar RSUExampleScenario.node[83].veinsmobility 	stopTime 	725.1
scalar RSUExampleScenario.node[83].veinsmobility 	minSpeed 	0.25505242009624
scalar RSUExampleScenario.node[83].veinsmobility 	maxSpeed 	18.99921200292
scalar RSUExampleScenario.node[83].veinsmobility 	totalDistance 	3409.1337229311
scalar RSUExampleScenario.node[83].veinsmobility 	totalCO2Emission 	708.37624801319
scalar RSUExampleScenario.node[84].veinsmobility 	startTime 	504.1
scalar RSUExampleScenario.node[84].veinsmobility 	totalTime 	226.5
scalar RSUExampleScenario.node[84].veinsmobility 	stopTime 	730.7
scalar RSUExampleScenario.node[84].veinsmobility 	minSpeed 	0.25054477114859
scalar RSUExampleScenario.node[84].veinsmobility 	maxSpeed 	18.99993267111
scalar RSUExampleScenario.node[84].veinsmobility 	totalDistance 	3409.4062725611
scalar RSUExampleScenario.node[84].veinsmobility 	totalCO2Emission 	707.1096000688
scalar RSUExampleScenario.node[85].veinsmobility 	startTime 	510.1
scalar RSUExampleScenario.node[85].veinsmobility 	totalTime 	226.6
scalar RSUExampleScenario.node[85].veinsmobility 	stopTime 	736.8
scalar RSUExampleScenario.node[85].veinsmobility 	minSpeed 	0.24792963867984
scalar RSUExampleScenario.node[85].veinsmobility 	maxSpeed 	18.999826614517
scalar RSUExampleScenario.node[85].veinsmobility 	totalDistance 	3409.4194354715
scalar RSUExampleScenario.node[85].veinsmobility 	totalCO2Emission 	705.87109781987
scalar RSUExampleScenario.node[86].veinsmobility 	startTime 	516.1
scalar RSUExampleScenario.node[86].veinsmobility 	totalTime 	226.6
scalar RSUExampleScenario.node[86].veinsmobility 	stopTime 	742.8
scalar RSUExampleScenario.node[86].veinsmobility 	minSpeed 	0.24919054307626
scalar RSUExampleScenario.node[86].veinsmobility 	maxSpeed 	18.999376563106
scalar RSUExampleScenario.node[86].veinsmobility 	totalDistance 	3409.1095007495
scalar RSUExampleScenario.node[86].veinsmobility 	totalCO2Emission 	707.35551069837
scalar RSUExampleScenario.node[87].veinsmobility 	startTime 	522.1
scalar RSUExampleScenario.node[87].veinsmobility 	totalTime 	227
scalar RSUExampleScenario.node[87].veinsmobility 	stopTime 	749.2
scalar RSUExampleScenario.node[87].veinsmobility 	minSpeed 	0.25206010711705
scalar RSUExampleScenario.node[87].veinsmobility 	maxSpeed 	18.999972455045
scalar RSUExampleScenario.node[87].veinsmobility 	totalDistance 	3409.5103883905
scalar RSUExampleScenario.node[87].veinsmobility 	totalCO2Emission 	708.76641479946
scalar RSUExampleScenario.node[88].veinsmobility 	startTime 	528.1
scalar RSUExampleScenario.node[88].veinsmobility 	totalTime 	226.9
scalar RSUExampleScenario.node[88].veinsmobility 	stopTime 	755.1
scalar RSUExampleScenario.node[88].veinsmobility 	minSpeed 	0.25382891322533
scalar RSUExampleScenario.node[88].veinsmobility 	maxSpeed 	18.999640985664
scalar RSUExampleScenario.node[88].veinsmobility 	totalDistance 	3409.4932587873
scalar RSUExampleScenario.node[88].veinsmobility 	totalCO2Emission 	707.02980214195
scalar RSUExampleScenario.node[89].veinsmobility 	startTime 	534.1
scalar RSUExampleScenario.node[89].veinsmobility 	totalTime 	226.9
scalar RSUExampleScenario.node[89].veinsmobility 	stopTime 	761.1
scalar RSUExampleScenario.node[89].veinsmobility 	minSpeed 	0.25773992575356
scalar RSUExampleScenario.node[89].veinsmobility 	maxSpeed 	18.999650430002
scalar RSUExampleScenario.node[89].veinsmobility 	totalDistance 	3409.6495241894
scalar RSUExampleScenario.node[89].veinsmobility 	totalCO2Emission 	706.26589521128
scalar RSUExampleScenario.node[90].veinsmobility 	startTime 	540.1
scalar RSUExampleScenario.node[90].veinsmobility 	totalTime 	227
scalar RSUExampleScenario.node[90].veinsmobility 	stopTime 	767.2
scalar RSUExampleScenario.node[90].veinsmobility 	minSpeed 	0.25167299905
scalar RSUExampleScenario.node[90].veinsmobility 	maxSpeed 	18.999910460676
scalar RSUExampleScenario.node[90].veinsmobility 	totalDistance 	3409.4579555197
scalar RSUExampleScenario.node[90].veinsmobility 	totalCO2Emission 	713.76462746013
scalar RSUExampleScenario.node[91].veinsmobility 	startTime 	546.1
scalar RSUExampleScenario.node[91].veinsmobility 	totalTime 	226.7
scalar RSUExampleScenario.node[91].veinsmobility 	stopTime 	772.9
scalar RSUExampleScenario.node[91].veinsmobility 	minSpeed 	0.25121556536597
scalar RSUExampleScenario.node[91].veinsmobility 	maxSpeed 	18.999958806334
scalar RSUExampleScenario.node[91].veinsmobility 	totalDistance 	3409.389608992
scalar RSUExampleScenario.node[91].veinsmobility 	totalCO2Emission 	706.07071033573
scalar RSUExampleScenario.node[92].veinsmobility 	startTime 	552.1
scalar RSUExampleScenario.node[92].veinsmobility 	totalTime 	226.9
scalar RSUExampleScenario.node[92].veinsmobility 	stopTime 	779.1
scalar RSUExampleScenario.node[92].veinsmobility 	minSpeed 	0.25220103514264
scalar RSUExampleScenario.node[92].veinsmobility 	maxSpeed 	18.999781381558
scalar RSUExampleScenario.node[92].veinsmobility 	totalDistance 	3409.3614165102
scalar RSUExampleScenario.node[92].veinsmobility 	totalCO2Emission 	710.65070322672
scalar RSUExampleScenario.node[93].veinsmobility 	startTime 	558.1
scalar RSUExampleScenario.node[93].veinsmobility 	totalTime 	226.9
scalar RSUExampleScenario.node[93].veinsmobility 	stopTime 	785.1
scalar RSUExampleScenario.node[93].veinsmobility 	minSpeed 	0.25889037886634
scalar RSUExampleScenario.node[93].veinsmobility 	maxSpeed 	18.999634960338
scalar RSUExampleScenario.node[93].veinsmobility 	totalDistance 	3409.4512840047
scalar RSUExampleScenario.node[93].veinsmobility 	totalCO2Emission 	707.33637032913
scalar RSUExampleScenario.node[94].veinsmobility 	startTime 	564.1
scalar RSUExampleScenario.node[94].veinsmobility 	totalTime 	227.1
scalar RSUExampleScenario.node[94].veinsmobility 	stopTime 	791.3
scalar RSUExampleScenario.node[94].veinsmobility 	minSpeed 	0.24953309213417
scalar RSUExampleScenario.node[94].veinsmobility 	maxSpeed 	18.9997368773
scalar RSUExampleScenario.node[94].veinsmobility 	totalDistance 	3409.5838078005
scalar RSUExampleScenario.node[94].veinsmobility 	totalCO2Emission 	705.75666295553
scalar RSUExampleScenario.node[95].veinsmobility 	startTime 	570.1
scalar RSUExampleScenario.node[95].veinsmobility 	totalTime 	226.8
scalar RSUExampleScenario.node[95].veinsmobility 	stopTime 	797
scalar RSUExampleScenario.node[95].veinsmobility 	minSpeed 	0.2531784951603
scalar RSUExampleScenario.node[95].veinsmobility 	maxSpeed 	18.999888222909
scalar RSUExampleScenario.node[95].veinsmobility 	totalDistance 	3409.6036759481
scalar RSUExampleScenario.node[95].veinsmobility 	totalCO2Emission 	705.8253660566
scalar RSUExampleScenario.node[96].veinsmobility 	startTime 	576.1
scalar RSUExampleScenario.node[96].veinsmobility 	totalTime 	227.1
scalar RSUExampleScenario.node[96].veinsmobility 	stopTime 	803.3
scalar RSUExampleScenario.node[96].veinsmobility 	minSpeed 	0.25642144923378
scalar RSUExampleScenario.node[96].veinsmobility 	maxSpeed 	18.999607879391
scalar RSUExampleScenario.node[96].veinsmobility 	totalDistance 	3409.353075334
scalar RSUExampleScenario.node[96].veinsmobility 	totalCO2Emission 	706.95735875468
scalar RSUExampleScenario.node[97].veinsmobility 	startTime 	582.1
scalar RSUExampleScenario.node[97].veinsmobility 	totalTime 	226.9
scalar RSUExampleScenario.node[97].veinsmobility 	stopTime 	809.1
scalar RSUExampleScenario.node[97].veinsmobility 	minSpeed 	0.24733997576777
scalar RSUExampleScenario.node[97].veinsmobility 	maxSpeed 	18.999797864866
scalar RSUExampleScenario.node[97].veinsmobility 	totalDistance 	3410.0386356837
scalar RSUExampleScenario.node[97].veinsmobility 	totalCO2Emission 	710.49081115746
scalar RSUExampleScenario.node[98].veinsmobility 	startTime 	588.1
scalar RSUExampleScenario.node[98].veinsmobility 	totalTime 	226.7
scalar RSUExampleScenario.node[98].veinsmobility 	stopTime 	814.9
scalar RSUExampleScenario.node[98].veinsmobility 	minSpeed 	0.2586460028633
scalar RSUExampleScenario.node[98].veinsmobility 	maxSpeed 	18.9999948993
scalar RSUExampleScenario.node[98].veinsmobility 	totalDistance 	3409.5440583758
scalar RSUExampleScenario.node[98].veinsmobility 	totalCO2Emission 	709.32354482042
scalar RSUExampleScenario.node[99].veinsmobility 	startTime 	594.1
scalar RSUExampleScenario.node[99].veinsmobility 	totalTime 	227
scalar RSUExampleScenario.node[99].veinsmobility 	stopTime 	821.2
scalar RSUExampleScenario.node[99].veinsmobility 	minSpeed 	0.25674043043191
scalar RSUExampleScenario.node[99].veinsmobility 	maxSpeed 	18.999865686398
scalar RSUExampleScenario.node[99].veinsmobility 	totalDistance 	3409.9636672106
scalar RSUExampleScenario.node[99].veinsmobility 	totalCO2Emission 	711.93725802055
scalar RSUExampleScenario.node[100].veinsmobility 	startTime 	600.1
scalar RSUExampleScenario.node[100].veinsmobility 	totalTime 	226.8
scalar RSUExampleScenario.node[100].veinsmobility 	stopTime 	827
scalar RSUExampleScenario.node[100].veinsmobility 	minSpeed 	0.24919327958347
scalar RSUExampleScenario.node[100].veinsmobility 	maxSpeed 	18.999728712814
scalar RSUExampleScenario.node[100].veinsmobility 	totalDistance 	3409.588377373
scalar RSUExampleScenario.node[100].veinsmobility 	totalCO2Emission 	710.04592427369
scalar RSUExampleScenario.node[101].veinsmobility 	startTime 	606.1
scalar RSUExampleScenario.node[101].veinsmobility 	totalTime 	227
scalar RSUExampleScenario.node[101].veinsmobility 	stopTime 	833.2
scalar RSUExampleScenario.node[101].veinsmobility 	minSpeed 	0.25773851344641
scalar RSUExampleScenario.node[101].veinsmobility 	maxSpeed 	18.999920806848
scalar RSUExampleScenario.node[101].veinsmobility 	totalDistance 	3409.5321004039
scalar RSUExampleScenario.node[101].veinsmobility 	totalCO2Emission 	709.24760803497
scalar RSUExampleScenario.node[102].veinsmobility 	startTime 	612.1
scalar RSUExampleScenario.node[102].veinsmobility 	totalTime 	226.7
scalar RSUExampleScenario.node[102].veinsmobility 	stopTime 	838.9
scalar RSUExampleScenario.node[102].veinsmobility 	minSpeed 	0.25624989698245
scalar RSUExampleScenario.node[102].veinsmobility 	maxSpeed 	18.999973370288
scalar RSUExampleScenario.node[102].veinsmobility 	totalDistance 	3409.5169618663
scalar RSUExampleScenario.node[102].veinsmobility 	totalCO2Emission 	704.71234826721
scalar RSUExampleScenario.node[103].veinsmobility 	startTime 	618.1
scalar RSUExampleScenario.node[103].veinsmobility 	totalTime 	227
scalar RSUExampleScenario.node[103].veinsmobility 	stopTime 	845.2
scalar RSUExampleScenario.node[103].veinsmobility 	minSpeed 	0.24735945625114
scalar RSUExampleScenario.node[103].veinsmobility 	maxSpeed 	18.999961057727
scalar RSUExampleScenario.node[103].veinsmobility 	totalDistance 	3409.5550035466
scalar RSUExampleScenario.node[103].veinsmobility 	totalCO2Emission 	710.03167925104
scalar RSUExampleScenario.node[104].veinsmobility 	startTime 	624.1
scalar RSUExampleScenario.node[104].veinsmobility 	totalTime 	226.8
scalar RSUExampleScenario.node[104].veinsmobility 	stopTime 	851
scalar RSUExampleScenario.node[104].veinsmobility 	minSpeed 	0.25062082981528
scalar RSUExampleScenario.node[104].veinsmobility 	maxSpeed 	18.99998371976
scalar RSUExampleScenario.node[104].veinsmobility 	totalDistance 	3409.3923493535
scalar RSUExampleScenario.node[104].veinsmobility 	totalCO2Emission 	707.12270432902
scalar RSUExampleScenario.node[105].veinsmobility 	startTime 	630.1
scalar RSUExampleScenario.node[105].veinsmobility 	totalTime 	227
scalar RSUExampleScenario.node[105].veinsmobility 	stopTime 	857.2
scalar RSUExampleScenario.node[105].veinsmobility 	minSpeed 	0.25727375124185
scalar RSUExampleScenario.node[105].veinsmobility 	maxSpeed 	18.99998959759
scalar RSUExampleScenario.node[105].veinsmobility 	totalDistance 	3409.1415111642
scalar RSUExampleScenario.node[105].veinsmobility 	totalCO2Emission 	703.6599727125
scalar RSUExampleScenario.node[106].veinsmobility 	startTime 	636.1
scalar RSUExampleScenario.node[106].veinsmobility 	totalTime 	227.1
scalar RSUExampleScenario.node[106].veinsmobility 	stopTime 	863.3
scalar RSUExampleScenario.node[106].veinsmobility 	minSpeed 	0.25667782377428
scalar RSUExampleScenario.node[106].veinsmobility 	maxSpeed 	18.99980026094
scalar RSUExampleScenario.node[106].veinsmobility 	totalDistance 	3409.3442496916
scalar RSUExampleScenario.node[106].veinsmobility 	totalCO2Emission 	712.3751714672
scalar RSUExampleScenario.node[107].veinsmobility 	startTime 	642.1
scalar RSUExampleScenario.node[107].veinsmobility 	totalTime 	226.9
scalar RSUExampleScenario.node[107].veinsmobility 	stopTime 	869.1
scalar RSUExampleScenario.node[107].veinsmobility 	minSpeed 	0.25421524020284
scalar RSUExampleScenario.node[107].veinsmobility 	maxSpeed 	18.99983647404
scalar RSUExampleScenario.node[107].veinsmobility 	totalDistance 	3409.4224157278
scalar RSUExampleScenario.node[107].veinsmobility 	totalCO2Emission 	709.14525455325
scalar RSUExampleScenario.node[108].veinsmobility 	startTime 	648.1
scalar RSUExampleScenario.node[108].veinsmobility 	totalTime 	226.9
scalar RSUExampleScenario.node[108].veinsmobility 	stopTime 	875.1
scalar RSUExampleScenario.node[108].veinsmobility 	minSpeed 	0.25510136163398
scalar RSUExampleScenario.node[108].veinsmobility 	maxSpeed 	18.999661608119
scalar RSUExampleScenario.node[108].veinsmobility 	totalDistance 	3409.5321152203
scalar RSUExampleScenario.node[108].veinsmobility 	totalCO2Emission 	703.49356931944
scalar RSUExampleScenario.node[109].veinsmobility 	startTime 	654.1
scalar RSUExampleScenario.node[109].veinsmobility 	totalTime 	227.2
scalar RSUExampleScenario.node[109].veinsmobility 	stopTime 	881.4
scalar RSUExampleScenario.node[109].veinsmobility 	minSpeed 	0.25743334523938
scalar RSUExampleScenario.node[109].veinsmobility 	maxSpeed 	18.999901865446
scalar RSUExampleScenario.node[109].veinsmobility 	totalDistance 	3409.4700772921
scalar RSUExampleScenario.node[109].veinsmobility 	totalCO2Emission 	707.12254961794
scalar RSUExampleScenario.node[110].veinsmobility 	startTime 	660.1
scalar RSUExampleScenario.node[110].veinsmobility 	totalTime 	227.1
scalar RSUExampleScenario.node[110].veinsmobility 	stopTime 	887.3
scalar RSUExampleScenario.node[110].veinsmobility 	minSpeed 	0.25023682928947
scalar RSUExampleScenario.node[110].veinsmobility 	maxSpeed 	18.999699525246
scalar RSUExampleScenario.node[110].veinsmobility 	totalDistance 	3409.4526860689
scalar RSUExampleScenario.node[110].veinsmobility 	totalCO2Emission 	704.66008193071
scalar RSUExampleScenario.node[111].veinsmobility 	startTime 	666.1
scalar RSUExampleScenario.node[111].veinsmobility 	totalTime 	227.1
scalar RSUExampleScenario.node[111].veinsmobility 	stopTime 	893.3
scalar RSUExampleScenario.node[111].veinsmobility 	minSpeed 	0.24816189346323
scalar RSUExampleScenario.node[111].veinsmobility 	maxSpeed 	18.999882311421
scalar RSUExampleScenario.node[111].veinsmobility 	totalDistance 	3409.3994333232
scalar RSUExampleScenario.node[111].veinsmobility 	totalCO2Emission 	703.40656288983
scalar RSUExampleScenario.node[112].veinsmobility 	startTime 	672.1
scalar RSUExampleScenario.node[112].veinsmobility 	totalTime 	226.9
scalar RSUExampleScenario.node[112].veinsmobility 	stopTime 	899.1
scalar RSUExampleScenario.node[112].veinsmobility 	minSpeed 	0.25558619501675
scalar RSUExampleScenario.node[112].veinsmobility 	maxSpeed 	18.999486484739
scalar RSUExampleScenario.node[112].veinsmobility 	totalDistance 	3409.2363863342
scalar RSUExampleScenario.node[112].veinsmobility 	totalCO2Emission 	707.46429501258
scalar RSUExampleScenario.node[113].veinsmobility 	startTime 	678.1
scalar RSUExampleScenario.node[113].veinsmobility 	totalTime 	226.7
scalar RSUExampleScenario.node[113].veinsmobility 	stopTime 	904.9
scalar RSUExampleScenario.node[113].veinsmobility 	minSpeed 	0.2574811608626
scalar RSUExampleScenario.node[113].veinsmobility 	maxSpeed 	18.999575267395
scalar RSUExampleScenario.node[113].veinsmobility 	totalDistance 	3410.0127490676
scalar RSUExampleScenario.node[113].veinsmobility 	totalCO2Emission 	709.62979152712
scalar RSUExampleScenario.node[114].veinsmobility 	startTime 	684.1
scalar RSUExampleScenario.node[114].veinsmobility 	totalTime 	227
scalar RSUExampleScenario.node[114].veinsmobility 	stopTime 	911.2
scalar RSUExampleScenario.node[114].veinsmobility 	minSpeed 	0.2515517426834
scalar RSUExampleScenario.node[114].veinsmobility 	maxSpeed 	18.999816923949
scalar RSUExampleScenario.node[114].veinsmobility 	totalDistance 	3409.6438084478
scalar RSUExampleScenario.node[114].veinsmobility 	totalCO2Emission 	705.74433975755
scalar RSUExampleScenario.node[115].veinsmobility 	startTime 	690.1
scalar RSUExampleScenario.node[115].veinsmobility 	totalTime 	226.9
scalar RSUExampleScenario.node[115].veinsmobility 	stopTime 	917.1
scalar RSUExampleScenario.node[115].veinsmobility 	minSpeed 	0.25654765756964
scalar RSUExampleScenario.node[115].veinsmobility 	maxSpeed 	18.999917042661
scalar RSUExampleScenario.node[115].veinsmobility 	totalDistance 	3409.812568658
scalar RSUExampleScenario.node[115].veinsmobility 	totalCO2Emission 	707.00715504566
scalar RSUExampleScenario.node[116].veinsmobility 	startTime 	696.1
scalar RSUExampleScenario.node[116].veinsmobility 	totalTime 	226.8
scalar RSUExampleScenario.node[116].veinsmobility 	stopTime 	923
scalar RSUExampleScenario.node[116].veinsmobility 	minSpeed 	0.2509283355521
scalar RSUExampleScenario.node[116].veinsmobility 	maxSpeed 	18.999630863869
scalar RSUExampleScenario.node[116].veinsmobility 	totalDistance 	3409.8201902121
scalar RSUExampleScenario.node[116].veinsmobility 	totalCO2Emission 	709.4151919399
scalar RSUExampleScenario.node[117].veinsmobility 	startTime 	702.1
scalar RSUExampleScenario.node[117].veinsmobility 	totalTime 	226.9
scalar RSUExampleScenario.node[117].veinsmobility 	stopTime 	929.1
scalar RSUExampleScenario.node[117].veinsmobility 	minSpeed 	0.25393437299761
scalar RSUExampleScenario.node[117].veinsmobility 	maxSpeed 	18.998865080674
scalar RSUExampleScenario.node[117].veinsmobility 	totalDistance 	3409.2157962905
scalar RSUExampleScenario.node[117].veinsmobility 	totalCO2Emission 	703.50604048398
scalar RSUExampleScenario.node[118].veinsmobility 	startTime 	708.1
scalar RSUExampleScenario.node[118].veinsmobility 	totalTime 	226.9
scalar RSUExampleScenario.node[118].veinsmobility 	stopTime 	935.1
scalar RSUExampleScenario.node[118].veinsmobility 	minSpeed 	0.24824241904565
scalar RSUExampleScenario.node[118].veinsmobility 	maxSpeed 	18.999324333339
scalar RSUExampleScenario.node[118].veinsmobility 	totalDistance 	3409.429698629
scalar RSUExampleScenario.node[118].veinsmobility 	totalCO2Emission 	707.26128681522
scalar RSUExampleScenario.node[119].veinsmobility 	startTime 	714.1
scalar RSUExampleScenario.node[119].veinsmobility 	totalTime 	226.9
scalar RSUExampleScenario.node[119].veinsmobility 	stopTime 	941.1
scalar RSUExampleScenario.node[119].veinsmobility 	minSpeed 	0.25052092401218
scalar RSUExampleScenario.node[119].veinsmobility 	maxSpeed 	18.999864089943
scalar RSUExampleScenario.node[119].veinsmobility 	totalDistance 	3409.2280568438
scalar RSUExampleScenario.node[119].veinsmobility 	totalCO2Emission 	709.17046674325
scalar RSUExampleScenario.node[120].veinsmobility 	startTime 	720.1
scalar RSUExampleScenario.node[120].veinsmobility 	totalTime 	226.8
scalar RSUExampleScenario.node[120].veinsmobility 	stopTime 	947
scalar RSUExampleScenario.node[120].veinsmobility 	minSpeed 	0.25196278721979
scalar RSUExampleScenario.node[120].veinsmobility 	maxSpeed 	18.999197273853
scalar RSUExampleScenario.node[120].veinsmobility 	totalDistance 	3409.2754432212
scalar RSUExampleScenario.node[120].veinsmobility 	totalCO2Emission 	707.7435120395
scalar RSUExampleScenario.node[121].veinsmobility 	startTime 	726.1
scalar RSUExampleScenario.node[121].veinsmobility 	totalTime 	227
scalar RSUExampleScenario.node[121].veinsmobility 	stopTime 	953.2
scalar RSUExampleScenario.node[121].veinsmobility 	minSpeed 	0.24981370568764
scalar RSUExampleScenario.node[121].veinsmobility 	maxSpeed 	18.999648220711
scalar RSUExampleScenario.node[121].veinsmobility 	totalDistance 	3409.8401380198
scalar RSUExampleScenario.node[121].veinsmobility 	totalCO2Emission 	708.79143171879
scalar RSUExampleScenario.node[122].veinsmobility 	startTime 	732.1
scalar RSUExampleScenario.node[122].veinsmobility 	totalTime 	226.7
scalar RSUExampleScenario.node[122].veinsmobility 	stopTime 	958.9
scalar RSUExampleScenario.node[122].veinsmobility 	minSpeed 	0.25721852574986
scalar RSUExampleScenario.node[122].veinsmobility 	maxSpeed 	18.99979637668
scalar RSUExampleScenario.node[122].veinsmobility 	totalDistance 	3409.4376745775
scalar RSUExampleScenario.node[122].veinsmobility 	totalCO2Emission 	705.73882572369
scalar RSUExampleScenario.node[123].veinsmobility 	startTime 	738.1
scalar RSUExampleScenario.node[123].veinsmobility 	totalTime 	227
scalar RSUExampleScenario.node[123].veinsmobility 	stopTime 	965.2
scalar RSUExampleScenario.node[123].veinsmobility 	minSpeed 	0.25489266198874
scalar RSUExampleScenario.node[123].veinsmobility 	maxSpeed 	18.999679424369
scalar RSUExampleScenario.node[123].veinsmobility 	totalDistance 	3409.4065176014
scalar RSUExampleScenario.node[123].veinsmobility 	totalCO2Emission 	705.41383218733
scalar RSUExampleScenario.node[124].veinsmobility 	startTime 	744.1
scalar RSUExampleScenario.node[124].veinsmobility 	totalTime 	227
scalar RSUExampleScenario.node[124].veinsmobility 	stopTime 	971.2
scalar RSUExampleScenario.node[124].veinsmobility 	minSpeed 	0.24791044183774
scalar RSUExampleScenario.node[124].veinsmobility 	maxSpeed 	18.999559086312
scalar RSUExampleScenario.node[124].veinsmobility 	totalDistance 	3409.3821959183
scalar RSUExampleScenario.node[124].veinsmobility 	totalCO2Emission 	707.27644720242
scalar RSUExampleScenario.node[125].veinsmobility 	startTime 	750.1
scalar RSUExampleScenario.node[125].veinsmobility 	totalTime 	226.6
scalar RSUExampleScenario.node[125].veinsmobility 	stopTime 	976.8
scalar RSUExampleScenario.node[125].veinsmobility 	minSpeed 	0.25719018191099
scalar RSUExampleScenario.node[125].veinsmobility 	maxSpeed 	18.999937997155
scalar RSUExampleScenario.node[125].veinsmobility 	totalDistance 	3409.5805561634
scalar RSUExampleScenario.node[125].veinsmobility 	totalCO2Emission 	705.43391679973
scalar RSUExampleScenario.node[126].veinsmobility 	startTime 	756.1
scalar RSUExampleScenario.node[126].veinsmobility 	totalTime 	226.9
scalar RSUExampleScenario.node[126].veinsmobility 	stopTime 	983.1
scalar RSUExampleScenario.node[126].veinsmobility 	minSpeed 	0.24792950050649
scalar RSUExampleScenario.node[126].veinsmobility 	maxSpeed 	18.999936797484
scalar RSUExampleScenario.node[126].veinsmobility 	totalDistance 	3409.3293355295
scalar RSUExampleScenario.node[126].veinsmobility 	totalCO2Emission 	707.64061112054
scalar RSUExampleScenario.node[127].veinsmobility 	startTime 	762.1
scalar RSUExampleScenario.node[127].veinsmobility 	totalTime 	226.8
scalar RSUExampleScenario.node[127].veinsmobility 	stopTime 	989
scalar RSUExampleScenario.node[127].veinsmobility 	minSpeed 	0.25779976447672
scalar RSUExampleScenario.node[127].veinsmobility 	maxSpeed 	18.999992614582
scalar RSUExampleScenario.node[127].veinsmobility 	totalDistance 	3409.7063315368
scalar RSUExampleScenario.node[127].veinsmobility 	totalCO2Emission 	709.81467274684
scalar RSUExampleScenario.node[128].veinsmobility 	startTime 	768.1
scalar RSUExampleScenario.node[128].veinsmobility 	totalTime 	227.1
scalar RSUExampleScenario.node[128].veinsmobility 	stopTime 	995.3
scalar RSUExampleScenario.node[128].veinsmobility 	minSpeed 	0.25001664221799
scalar RSUExampleScenario.node[128].veinsmobility 	maxSpeed 	18.999742480328
scalar RSUExampleScenario.node[128].veinsmobility 	totalDistance 	3409.3679675214
scalar RSUExampleScenario.node[128].veinsmobility 	totalCO2Emission 	703.84640825076
scalar RSUExampleScenario.node[129].veinsmobility 	startTime 	774.1
scalar RSUExampleScenario.node[129].veinsmobility 	totalTime 	226.6
scalar RSUExampleScenario.node[129].veinsmobility 	stopTime 	1000.8
scalar RSUExampleScenario.node[129].veinsmobility 	minSpeed 	0.25615180990077
scalar RSUExampleScenario.node[129].veinsmobility 	maxSpeed 	18.999633459803
scalar RSUExampleScenario.node[129].veinsmobility 	totalDistance 	3409.233623505
scalar RSUExampleScenario.node[129].veinsmobility 	totalCO2Emission 	705.54514215136
scalar RSUExampleScenario.node[130].veinsmobility 	startTime 	780.1
scalar RSUExampleScenario.node[130].veinsmobility 	totalTime 	226.8
scalar RSUExampleScenario.node[130].veinsmobility 	stopTime 	1007
scalar RSUExampleScenario.node[130].veinsmobility 	minSpeed 	0.25176899903314
scalar RSUExampleScenario.node[130].veinsmobility 	maxSpeed 	18.999724839965
scalar RSUExampleScenario.node[130].veinsmobility 	totalDistance 	3409.3649729794
scalar RSUExampleScenario.node[130].veinsmobility 	totalCO2Emission 	706.3663577318
scalar RSUExampleScenario.node[131].veinsmobility 	startTime 	786.1
scalar RSUExampleScenario.node[131].veinsmobility 	totalTime 	226.9
scalar RSUExampleScenario.node[131].veinsmobility 	stopTime 	1013.1
scalar RSUExampleScenario.node[131].veinsmobility 	minSpeed 	0.25950559073221
scalar RSUExampleScenario.node[131].veinsmobility 	maxSpeed 	18.999774124778
scalar RSUExampleScenario.node[131].veinsmobility 	totalDistance 	3409.360459298
scalar RSUExampleScenario.node[131].veinsmobility 	totalCO2Emission 	711.20855570285
scalar RSUExampleScenario.node[132].veinsmobility 	startTime 	792.1
scalar RSUExampleScenario.node[132].veinsmobility 	totalTime 	226.7
scalar RSUExampleScenario.node[132].veinsmobility 	stopTime 	1018.9
scalar RSUExampleScenario.node[132].veinsmobility 	minSpeed 	0.25476856567408
scalar RSUExampleScenario.node[132].veinsmobility 	maxSpeed 	18.999533596977
scalar RSUExampleScenario.node[132].veinsmobility 	totalDistance 	3409.5908760556
scalar RSUExampleScenario.node[132].veinsmobility 	totalCO2Emission 	707.96308513704
scalar RSUExampleScenario.node[133].veinsmobility 	startTime 	798.1
scalar RSUExampleScenario.node[133].veinsmobility 	totalTime 	226.8
scalar RSUExampleScenario.node[133].veinsmobility 	stopTime 	1025
scalar RSUExampleScenario.node[133].veinsmobility 	minSpeed 	0.24780593936006
scalar RSUExampleScenario.node[133].veinsmobility 	maxSpeed 	18.999879302813
scalar RSUExampleScenario.node[133].veinsmobility 	totalDistance 	3409.3219304647
scalar RSUExampleScenario.node[133].veinsmobility 	totalCO2Emission 	715.51047400953
scalar RSUExampleScenario.node[134].veinsmobility 	startTime 	804.1
scalar RSUExampleScenario.node[134].veinsmobility 	totalTime 	226.9
scalar RSUExampleScenario.node[134].veinsmobility 	stopTime 	1031.1
scalar RSUExampleScenario.node[134].veinsmobility 	minSpeed 	0.25887616498792
scalar RSUExampleScenario.node[134].veinsmobility 	maxSpeed 	18.999934128725
scalar RSUExampleScenario.node[134].veinsmobility 	totalDistance 	3409.6253356688
scalar RSUExampleScenario.node[134].veinsmobility 	totalCO2Emission 	708.39603632736
scalar RSUExampleScenario.node[135].veinsmobility 	startTime 	810.1
scalar RSUExampleScenario.node[135].veinsmobility 	totalTime 	226.8
scalar RSUExampleScenario.node[135].veinsmobility 	stopTime 	1037
scalar RSUExampleScenario.node[135].veinsmobility 	minSpeed 	0.25940476888977
scalar RSUExampleScenario.node[135].veinsmobility 	maxSpeed 	18.999549165557
scalar RSUExampleScenario.node[135].veinsmobility 	totalDistance 	3409.2028499708
scalar RSUExampleScenario.node[135].veinsmobility 	totalCO2Emission 	708.2237505562
scalar RSUExampleScenario.node[136].veinsmobility 	startTime 	816.1
scalar RSUExampleScenario.node[136].veinsmobility 	totalTime 	226.9
scalar RSUExampleScenario.node[136].veinsmobility 	stopTime 	1043.1
scalar RSUExampleScenario.node[136].veinsmobility 	minSpeed 	0.25608065904537
scalar RSUExampleScenario.node[136].veinsmobility 	maxSpeed 	18.999767287755
scalar RSUExampleScenario.node[136].veinsmobility 	totalDistance 	3409.2241300854
scalar RSUExampleScenario.node[136].veinsmobility 	totalCO2Emission 	707.94389022547
scalar RSUExampleScenario.node[137].veinsmobility 	startTime 	822.1
scalar RSUExampleScenario.node[137].veinsmobility 	totalTime 	227.2
scalar RSUExampleScenario.node[137].veinsmobility 	stopTime 	1049.4
scalar RSUExampleScenario.node[137].veinsmobility 	minSpeed 	0.24744951543119
scalar RSUExampleScenario.node[137].veinsmobility 	maxSpeed 	18.999927252142
scalar RSUExampleScenario.node[137].veinsmobility 	totalDistance 	3409.2931886578
scalar RSUExampleScenario.node[137].veinsmobility 	totalCO2Emission 	709.92610367773
scalar RSUExampleScenario.node[138].veinsmobility 	startTime 	828.1
scalar RSUExampleScenario.node[138].veinsmobility 	totalTime 	226.7
scalar RSUExampleScenario.node[138].veinsmobility 	stopTime 	1054.9
scalar RSUExampleScenario.node[138].veinsmobility 	minSpeed 	0.25526911094016
scalar RSUExampleScenario.node[138].veinsmobility 	maxSpeed 	18.999132624194
scalar RSUExampleScenario.node[138].veinsmobility 	totalDistance 	3409.5643617663
scalar RSUExampleScenario.node[138].veinsmobility 	totalCO2Emission 	705.5465059826
scalar RSUExampleScenario.node[139].veinsmobility 	startTime 	834.1
scalar RSUExampleScenario.node[139].veinsmobility 	totalTime 	227
scalar RSUExampleScenario.node[139].veinsmobility 	stopTime 	1061.2
scalar RSUExampleScenario.node[139].veinsmobility 	minSpeed 	0.25502118423628
scalar RSUExampleScenario.node[139].veinsmobility 	maxSpeed 	18.999320480044
scalar RSUExampleScenario.node[139].veinsmobility 	totalDistance 	3409.3009070541
scalar RSUExampleScenario.node[139].veinsmobility 	totalCO2Emission 	712.12882729221
scalar RSUExampleScenario.node[140].veinsmobility 	startTime 	840.1
scalar RSUExampleScenario.node[140].veinsmobility 	totalTime 	226.9
scalar RSUExampleScenario.node[140].veinsmobility 	stopTime 	1067.1
scalar RSUExampleScenario.node[140].veinsmobility 	minSpeed 	0.2578483408615
scalar RSUExampleScenario.node[140].veinsmobility 	maxSpeed 	18.999557253162
scalar RSUExampleScenario.node[140].veinsmobility 	totalDistance 	3409.4641483148
scalar RSUExampleScenario.node[140].veinsmobility 	totalCO2Emission 	707.54653677432
scalar RSUExampleScenario.node[141].veinsmobility 	startTime 	846.1
scalar RSUExampleScenario.node[141].veinsmobility 	totalTime 	227
scalar RSUExampleScenario.node[141].veinsmobility 	stopTime 	1073.2
scalar RSUExampleScenario.node[141].veinsmobility 	minSpeed 	0.25443900979892
scalar RSUExampleScenario.node[141].veinsmobility 	maxSpeed 	18.999964549139
scalar RSUExampleScenario.node[141].veinsmobility 	totalDistance 	3409.9198242018
scalar RSUExampleScenario.node[141].veinsmobility 	totalCO2Emission 	710.39906899095
scalar RSUExampleScenario.node[142].veinsmobility 	startTime 	852.1
scalar RSUExampleScenario.node[142].veinsmobility 	totalTime 	226.8
scalar RSUExampleScenario.node[142].veinsmobility 	stopTime 	1079
scalar RSUExampleScenario.node[142].veinsmobility 	minSpeed 	0.25151314321323
scalar RSUExampleScenario.node[142].veinsmobility 	maxSpeed 	18.9999717406
scalar RSUExampleScenario.node[142].veinsmobility 	totalDistance 	3409.2644006448
scalar RSUExampleScenario.node[142].veinsmobility 	totalCO2Emission 	706.87610269463
scalar RSUExampleScenario.node[143].veinsmobility 	startTime 	858.1
scalar RSUExampleScenario.node[143].veinsmobility 	totalTime 	226.8
scalar RSUExampleScenario.node[143].veinsmobility 	stopTime 	1085
scalar RSUExampleScenario.node[143].veinsmobility 	minSpeed 	0.25321996420785
scalar RSUExampleScenario.node[143].veinsmobility 	maxSpeed 	18.999887352281
scalar RSUExampleScenario.node[143].veinsmobility 	totalDistance 	3409.5165846293
scalar RSUExampleScenario.node[143].veinsmobility 	totalCO2Emission 	707.16064017618
scalar RSUExampleScenario.node[144].veinsmobility 	startTime 	864.1
scalar RSUExampleScenario.node[144].veinsmobility 	totalTime 	227
scalar RSUExampleScenario.node[144].veinsmobility 	stopTime 	1091.2
scalar RSUExampleScenario.node[144].veinsmobility 	minSpeed 	0.25282843283215
scalar RSUExampleScenario.node[144].veinsmobility 	maxSpeed 	18.999430376978
scalar RSUExampleScenario.node[144].veinsmobility 	totalDistance 	3409.6767884966
scalar RSUExampleScenario.node[144].veinsmobility 	totalCO2Emission 	707.67138619511
scalar RSUExampleScenario.node[145].veinsmobility 	startTime 	870.1
scalar RSUExampleScenario.node[145].veinsmobility 	totalTime 	227
scalar RSUExampleScenario.node[145].veinsmobility 	stopTime 	1097.2
scalar RSUExampleScenario.node[145].veinsmobility 	minSpeed 	0.24827647370845
scalar RSUExampleScenario.node[145].veinsmobility 	maxSpeed 	18.999975154889
scalar RSUExampleScenario.node[145].veinsmobility 	totalDistance 	3409.5165547562
scalar RSUExampleScenario.node[145].veinsmobility 	totalCO2Emission 	704.54416172746
scalar RSUExampleScenario.node[146].veinsmobility 	startTime 	876.1
scalar RSUExampleScenario.node[146].veinsmobility 	totalTime 	226.8
scalar RSUExampleScenario.node[146].veinsmobility 	stopTime 	1103
scalar RSUExampleScenario.node[146].veinsmobility 	minSpeed 	0.25849952529371
scalar RSUExampleScenario.node[146].veinsmobility 	maxSpeed 	18.999828940732
scalar RSUExampleScenario.node[146].veinsmobility 	totalDistance 	3409.4821121803
scalar RSUExampleScenario.node[146].veinsmobility 	totalCO2Emission 	704.32645261685
scalar RSUExampleScenario.node[147].veinsmobility 	startTime 	882.1
scalar RSUExampleScenario.node[147].veinsmobility 	totalTime 	226.8
scalar RSUExampleScenario.node[147].veinsmobility 	stopTime 	1109
scalar RSUExampleScenario.node[147].veinsmobility 	minSpeed 	0.25762583472067
scalar RSUExampleScenario.node[147].veinsmobility 	maxSpeed 	18.999871401053
scalar RSUExampleScenario.node[147].veinsmobility 	totalDistance 	3409.1271393104
scalar RSUExampleScenario.node[147].veinsmobility 	totalCO2Emission 	703.941722161
scalar RSUExampleScenario.node[148].veinsmobility 	startTime 	888.1
scalar RSUExampleScenario.node[148].veinsmobility 	totalTime 	227.1
scalar RSUExampleScenario.node[148].veinsmobility 	stopTime 	1115.3
scalar RSUExampleScenario.node[148].veinsmobility 	minSpeed 	0.25456845983281
scalar RSUExampleScenario.node[148].veinsmobility 	maxSpeed 	18.99995215107
scalar RSUExampleScenario.node[148].veinsmobility 	totalDistance 	3409.5065390876
scalar RSUExampleScenario.node[148].veinsmobility 	totalCO2Emission 	708.73191386412
scalar RSUExampleScenario.node[149].veinsmobility 	startTime 	894.1
scalar RSUExampleScenario.node[149].veinsmobility 	totalTime 	227
scalar RSUExampleScenario.node[149].veinsmobility 	stopTime 	1121.2
scalar RSUExampleScenario.node[149].veinsmobility 	minSpeed 	0.25149106075778
scalar RSUExampleScenario.node[149].veinsmobility 	maxSpeed 	18.999917591661
scalar RSUExampleScenario.node[149].veinsmobility 	totalDistance 	3409.2740609341
scalar RSUExampleScenario.node[149].veinsmobility 	totalCO2Emission 	712.38427878459
scalar RSUExampleScenario.node[150].veinsmobility 	startTime 	900.1
scalar RSUExampleScenario.node[150].veinsmobility 	totalTime 	226.7
scalar RSUExampleScenario.node[150].veinsmobility 	stopTime 	1126.9
scalar RSUExampleScenario.node[150].veinsmobility 	minSpeed 	0.25212335376698
scalar RSUExampleScenario.node[150].veinsmobility 	maxSpeed 	18.999491852524
scalar RSUExampleScenario.node[150].veinsmobility 	totalDistance 	3409.4924267164
scalar RSUExampleScenario.node[150].veinsmobility 	totalCO2Emission 	704.71354704645
scalar RSUExampleScenario.node[151].veinsmobility 	startTime 	906.1
scalar RSUExampleScenario.node[151].veinsmobility 	totalTime 	227
scalar RSUExampleScenario.node[151].veinsmobility 	stopTime 	1133.2
scalar RSUExampleScenario.node[151].veinsmobility 	minSpeed 	0.25707838217355
scalar RSUExampleScenario.node[151].veinsmobility 	maxSpeed 	18.999812833231
scalar RSUExampleScenario.node[151].veinsmobility 	totalDistance 	3409.2223336684
scalar RSUExampleScenario.node[151].veinsmobility 	totalCO2Emission 	703.17402818656
scalar RSUExampleScenario.node[152].veinsmobility 	startTime 	912.1
scalar RSUExampleScenario.node[152].veinsmobility 	totalTime 	227.1
scalar RSUExampleScenario.node[152].veinsmobility 	stopTime 	1139.3
scalar RSUExampleScenario.node[152].veinsmobility 	minSpeed 	0.25196645010286
scalar RSUExampleScenario.node[152].veinsmobility 	maxSpeed 	18.999843071795
scalar RSUExampleScenario.node[152].veinsmobility 	totalDistance 	3409.3228913829
scalar RSUExampleScenario.node[152].veinsmobility 	totalCO2Emission 	714.31551081094
[...]
scalar RSUExampleScenario.node[262].veinsmobility 	startTime 	1572.1
scalar RSUExampleScenario.node[262].veinsmobility 	totalTime 	226.8
scalar RSUExampleScenario.node[262].veinsmobility 	stopTime 	1799
scalar RSUExampleScenario.node[262].veinsmobility 	minSpeed 	0.25811762892548
scalar RSUExampleScenario.node[262].veinsmobility 	maxSpeed 	18.999974712764
scalar RSUExampleScenario.node[262].veinsmobility 	totalDistance 	3409.1083637875
scalar RSUExampleScenario.node[262].veinsmobility 	totalCO2Emission 	707.30521692064
scalar RSUExampleScenario.node[263].veinsmobility 	startTime 	1578.1
scalar RSUExampleScenario.node[263].veinsmobility 	totalTime 	226.8
scalar RSUExampleScenario.node[263].veinsmobility 	stopTime 	1805
scalar RSUExampleScenario.node[263].veinsmobility 	minSpeed 	0.25672009647009
scalar RSUExampleScenario.node[263].veinsmobility 	maxSpeed 	18.999843833458
scalar RSUExampleScenario.node[263].veinsmobility 	totalDistance 	3409.5750728866
scalar RSUExampleScenario.node[263].veinsmobility 	totalCO2Emission 	701.14285979098
scalar RSUExampleScenario.node[264].veinsmobility 	startTime 	1584.1
scalar RSUExampleScenario.node[264].veinsmobility 	totalTime 	226.7
scalar RSUExampleScenario.node[264].veinsmobility 	stopTime 	1810.9
scalar RSUExampleScenario.node[264].veinsmobility 	minSpeed 	0.25296528715338
scalar RSUExampleScenario.node[264].veinsmobility 	maxSpeed 	18.999972896988
scalar RSUExampleScenario.node[264].veinsmobility 	totalDistance 	3409.5705964416
scalar RSUExampleScenario.node[264].veinsmobility 	totalCO2Emission 	709.4663959213
scalar RSUExampleScenario.node[265].veinsmobility 	startTime 	1590.1
scalar RSUExampleScenario.node[265].veinsmobility 	totalTime 	227.2
scalar RSUExampleScenario.node[265].veinsmobility 	stopTime 	1817.4
scalar RSUExampleScenario.node[265].veinsmobility 	minSpeed 	0.25932440184802
scalar RSUExampleScenario.node[265].veinsmobility 	maxSpeed 	18.999106723275
scalar RSUExampleScenario.node[265].veinsmobility 	totalDistance 	3409.47390653
scalar RSUExampleScenario.node[265].veinsmobility 	totalCO2Emission 	704.5125556641
scalar RSUExampleScenario.node[266].veinsmobility 	startTime 	1596.1
scalar RSUExampleScenario.node[266].veinsmobility 	totalTime 	226.8
scalar RSUExampleScenario.node[266].veinsmobility 	stopTime 	1823
scalar RSUExampleScenario.node[266].veinsmobility 	minSpeed 	0.24918548147939
scalar RSUExampleScenario.node[266].veinsmobility 	maxSpeed 	18.999139447536
scalar RSUExampleScenario.node[266].veinsmobility 	totalDistance 	3409.307010335
scalar RSUExampleScenario.node[266].veinsmobility 	totalCO2Emission 	704.59669974979
scalar RSUExampleScenario.node[267].veinsmobility 	startTime 	1602.1
scalar RSUExampleScenario.node[267].veinsmobility 	totalTime 	226.7
scalar RSUExampleScenario.node[267].veinsmobility 	stopTime 	1828.9
scalar RSUExampleScenario.node[267].veinsmobility 	minSpeed 	0.24891955846152
scalar RSUExampleScenario.node[267].veinsmobility 	maxSpeed 	18.999818557391
scalar RSUExampleScenario.node[267].veinsmobility 	totalDistance 	3409.5210359158
scalar RSUExampleScenario.node[267].veinsmobility 	totalCO2Emission 	705.49567256841
scalar RSUExampleScenario.node[268].veinsmobility 	startTime 	1608.1
scalar RSUExampleScenario.node[268].veinsmobility 	totalTime 	226.6
scalar RSUExampleScenario.node[268].veinsmobility 	stopTime 	1834.8
scalar RSUExampleScenario.node[268].veinsmobility 	minSpeed 	0.25271793626458
scalar RSUExampleScenario.node[268].veinsmobility 	maxSpeed 	18.999453886182
scalar RSUExampleScenario.node[268].veinsmobility 	totalDistance 	3409.1994700113
scalar RSUExampleScenario.node[268].veinsmobility 	totalCO2Emission 	705.96408451553
scalar RSUExampleScenario.node[269].veinsmobility 	startTime 	1614.1
scalar RSUExampleScenario.node[269].veinsmobility 	totalTime 	226.7
scalar RSUExampleScenario.node[269].veinsmobility 	stopTime 	1840.9
scalar RSUExampleScenario.node[269].veinsmobility 	minSpeed 	0.2503099819452
scalar RSUExampleScenario.node[269].veinsmobility 	maxSpeed 	18.999877874588
scalar RSUExampleScenario.node[269].veinsmobility 	totalDistance 	3409.0478640681
scalar RSUExampleScenario.node[269].veinsmobility 	totalCO2Emission 	707.20737440977
scalar RSUExampleScenario.node[270].veinsmobility 	startTime 	1620.1
scalar RSUExampleScenario.node[270].veinsmobility 	totalTime 	226.9
scalar RSUExampleScenario.node[270].veinsmobility 	stopTime 	1847.1
scalar RSUExampleScenario.node[270].veinsmobility 	minSpeed 	0.24956073072902
scalar RSUExampleScenario.node[270].veinsmobility 	maxSpeed 	18.999844454436
scalar RSUExampleScenario.node[270].veinsmobility 	totalDistance 	3409.4068496237
scalar RSUExampleScenario.node[270].veinsmobility 	totalCO2Emission 	710.7202125512
scalar RSUExampleScenario.node[271].veinsmobility 	startTime 	1626.1
scalar RSUExampleScenario.node[271].veinsmobility 	totalTime 	226.8
scalar RSUExampleScenario.node[271].veinsmobility 	stopTime 	1853
scalar RSUExampleScenario.node[271].veinsmobility 	minSpeed 	0.25188721666369
scalar RSUExampleScenario.node[271].veinsmobility 	maxSpeed 	18.999936038333
scalar RSUExampleScenario.node[271].veinsmobility 	totalDistance 	3409.5991589257
scalar RSUExampleScenario.node[271].veinsmobility 	totalCO2Emission 	712.49823609011
scalar RSUExampleScenario.node[272].veinsmobility 	startTime 	1632.1
scalar RSUExampleScenario.node[272].veinsmobility 	totalTime 	226.9
scalar RSUExampleScenario.node[272].veinsmobility 	stopTime 	1859.1
scalar RSUExampleScenario.node[272].veinsmobility 	minSpeed 	0.24908809885173
scalar RSUExampleScenario.node[272].veinsmobility 	maxSpeed 	18.999993952729
scalar RSUExampleScenario.node[272].veinsmobility 	totalDistance 	3409.9287399673
scalar RSUExampleScenario.node[272].veinsmobility 	totalCO2Emission 	704.6798025529
scalar RSUExampleScenario.node[273].veinsmobility 	startTime 	1638.1
scalar RSUExampleScenario.node[273].veinsmobility 	totalTime 	226.9
scalar RSUExampleScenario.node[273].veinsmobility 	stopTime 	1865.1
scalar RSUExampleScenario.node[273].veinsmobility 	minSpeed 	0.25644830737775
scalar RSUExampleScenario.node[273].veinsmobility 	maxSpeed 	18.999250304268
scalar RSUExampleScenario.node[273].veinsmobility 	totalDistance 	3409.4350159284
scalar RSUExampleScenario.node[273].veinsmobility 	totalCO2Emission 	707.66190896592
scalar RSUExampleScenario.node[274].veinsmobility 	startTime 	1644.1
scalar RSUExampleScenario.node[274].veinsmobility 	totalTime 	227
scalar RSUExampleScenario.node[274].veinsmobility 	stopTime 	1871.2
scalar RSUExampleScenario.node[274].veinsmobility 	minSpeed 	0.25145700038038
scalar RSUExampleScenario.node[274].veinsmobility 	maxSpeed 	18.999881756487
scalar RSUExampleScenario.node[274].veinsmobility 	totalDistance 	3409.2543267389
scalar RSUExampleScenario.node[274].veinsmobility 	totalCO2Emission 	710.79510664555
scalar RSUExampleScenario.node[275].veinsmobility 	startTime 	1650.1
scalar RSUExampleScenario.node[275].veinsmobility 	totalTime 	227
scalar RSUExampleScenario.node[275].veinsmobility 	stopTime 	1877.2
scalar RSUExampleScenario.node[275].veinsmobility 	minSpeed 	0.25816784171248
scalar RSUExampleScenario.node[275].veinsmobility 	maxSpeed 	18.999938266329
scalar RSUExampleScenario.node[275].veinsmobility 	totalDistance 	3409.2050223305
scalar RSUExampleScenario.node[275].veinsmobility 	totalCO2Emission 	710.09300638082
scalar RSUExampleScenario.node[276].veinsmobility 	startTime 	1656.1
scalar RSUExampleScenario.node[276].veinsmobility 	totalTime 	226.8
scalar RSUExampleScenario.node[276].veinsmobility 	stopTime 	1883
scalar RSUExampleScenario.node[276].veinsmobility 	minSpeed 	0.25287032215972
scalar RSUExampleScenario.node[276].veinsmobility 	maxSpeed 	18.999211275913
scalar RSUExampleScenario.node[276].veinsmobility 	totalDistance 	3409.106743218
scalar RSUExampleScenario.node[276].veinsmobility 	totalCO2Emission 	708.58319920368
scalar RSUExampleScenario.node[277].veinsmobility 	startTime 	1662.1
scalar RSUExampleScenario.node[277].veinsmobility 	totalTime 	227
scalar RSUExampleScenario.node[277].veinsmobility 	stopTime 	1889.2
scalar RSUExampleScenario.node[277].veinsmobility 	minSpeed 	0.2584583355228
scalar RSUExampleScenario.node[277].veinsmobility 	maxSpeed 	18.999666631848
scalar RSUExampleScenario.node[277].veinsmobility 	totalDistance 	3409.5414958822
scalar RSUExampleScenario.node[277].veinsmobility 	totalCO2Emission 	708.98080964835
scalar RSUExampleScenario.node[278].veinsmobility 	startTime 	1668.1
scalar RSUExampleScenario.node[278].veinsmobility 	totalTime 	226.6
scalar RSUExampleScenario.node[278].veinsmobility 	stopTime 	1894.8
scalar RSUExampleScenario.node[278].veinsmobility 	minSpeed 	0.25816681396309
scalar RSUExampleScenario.node[278].veinsmobility 	maxSpeed 	18.999788137553
scalar RSUExampleScenario.node[278].veinsmobility 	totalDistance 	3409.3040960003
scalar RSUExampleScenario.node[278].veinsmobility 	totalCO2Emission 	697.73338208843
scalar RSUExampleScenario.node[279].veinsmobility 	startTime 	1674.1
scalar RSUExampleScenario.node[279].veinsmobility 	totalTime 	227.1
scalar RSUExampleScenario.node[279].veinsmobility 	stopTime 	1901.3
scalar RSUExampleScenario.node[279].veinsmobility 	minSpeed 	0.24725124347559
scalar RSUExampleScenario.node[279].veinsmobility 	maxSpeed 	18.999890157487
scalar RSUExampleScenario.node[279].veinsmobility 	totalDistance 	3409.4101705012
scalar RSUExampleScenario.node[279].veinsmobility 	totalCO2Emission 	708.33609497236
scalar RSUExampleScenario.node[280].veinsmobility 	startTime 	1680.1
scalar RSUExampleScenario.node[280].veinsmobility 	totalTime 	226.8
scalar RSUExampleScenario.node[280].veinsmobility 	stopTime 	1907
scalar RSUExampleScenario.node[280].veinsmobility 	minSpeed 	0.25116192015936
scalar RSUExampleScenario.node[280].veinsmobility 	maxSpeed 	18.999872058171
scalar RSUExampleScenario.node[280].veinsmobility 	totalDistance 	3409.3798740534
scalar RSUExampleScenario.node[280].veinsmobility 	totalCO2Emission 	708.37295676074
scalar RSUExampleScenario.node[281].veinsmobility 	startTime 	1686.1
scalar RSUExampleScenario.node[281].veinsmobility 	totalTime 	227.2
scalar RSUExampleScenario.node[281].veinsmobility 	stopTime 	1913.4
scalar RSUExampleScenario.node[281].veinsmobility 	minSpeed 	0.25317418337706
scalar RSUExampleScenario.node[281].veinsmobility 	maxSpeed 	18.999936516657
scalar RSUExampleScenario.node[281].veinsmobility 	totalDistance 	3409.1757306249
scalar RSUExampleScenario.node[281].veinsmobility 	totalCO2Emission 	707.8704978117
scalar RSUExampleScenario.node[282].veinsmobility 	startTime 	1692.1
scalar RSUExampleScenario.node[282].veinsmobility 	totalTime 	226.9
scalar RSUExampleScenario.node[282].veinsmobility 	stopTime 	1919.1
scalar RSUExampleScenario.node[282].veinsmobility 	minSpeed 	0.24895966065838
scalar RSUExampleScenario.node[282].veinsmobility 	maxSpeed 	18.99956692009
scalar RSUExampleScenario.node[282].veinsmobility 	totalDistance 	3409.4054656225
scalar RSUExampleScenario.node[282].veinsmobility 	totalCO2Emission 	707.00858455901
scalar RSUExampleScenario.node[283].veinsmobility 	startTime 	1698.1
scalar RSUExampleScenario.node[283].veinsmobility 	totalTime 	226.8
scalar RSUExampleScenario.node[283].veinsmobility 	stopTime 	1925
scalar RSUExampleScenario.node[283].veinsmobility 	minSpeed 	0.24750190057559
scalar RSUExampleScenario.node[283].veinsmobility 	maxSpeed 	18.999424277041
scalar RSUExampleScenario.node[283].veinsmobility 	totalDistance 	3409.3174197935
scalar RSUExampleScenario.node[283].veinsmobility 	totalCO2Emission 	704.60679090294
scalar RSUExampleScenario.node[284].veinsmobility 	startTime 	1704.1
scalar RSUExampleScenario.node[284].veinsmobility 	totalTime 	227.1
scalar RSUExampleScenario.node[284].veinsmobility 	stopTime 	1931.3
scalar RSUExampleScenario.node[284].veinsmobility 	minSpeed 	0.25587697057659
scalar RSUExampleScenario.node[284].veinsmobility 	maxSpeed 	18.999988957392
scalar RSUExampleScenario.node[284].veinsmobility 	totalDistance 	3409.4483130868
scalar RSUExampleScenario.node[284].veinsmobility 	totalCO2Emission 	706.18322531299
scalar RSUExampleScenario.node[285].veinsmobility 	startTime 	1710.1
scalar RSUExampleScenario.node[285].veinsmobility 	totalTime 	226.7
scalar RSUExampleScenario.node[285].veinsmobility 	stopTime 	1936.9
scalar RSUExampleScenario.node[285].veinsmobility 	minSpeed 	0.25782591168024
scalar RSUExampleScenario.node[285].veinsmobility 	maxSpeed 	18.999906838415
scalar RSUExampleScenario.node[285].veinsmobility 	totalDistance 	3409.7055860058
scalar RSUExampleScenario.node[285].veinsmobility 	totalCO2Emission 	706.74401624026
scalar RSUExampleScenario.node[286].veinsmobility 	startTime 	1716.1
scalar RSUExampleScenario.node[286].veinsmobility 	totalTime 	226.7
scalar RSUExampleScenario.node[286].veinsmobility 	stopTime 	1942.9
scalar RSUExampleScenario.node[286].veinsmobility 	minSpeed 	0.25666463554464
scalar RSUExampleScenario.node[286].veinsmobility 	maxSpeed 	18.999936909566
scalar RSUExampleScenario.node[286].veinsmobility 	totalDistance 	3409.8127276693
scalar RSUExampleScenario.node[286].veinsmobility 	totalCO2Emission 	708.92302254368
scalar RSUExampleScenario.node[287].veinsmobility 	startTime 	1722.1
scalar RSUExampleScenario.node[287].veinsmobility 	totalTime 	227.2
scalar RSUExampleScenario.node[287].veinsmobility 	stopTime 	1949.4
scalar RSUExampleScenario.node[287].veinsmobility 	minSpeed 	0.25144977835473
scalar RSUExampleScenario.node[287].veinsmobility 	maxSpeed 	18.999997814076
scalar RSUExampleScenario.node[287].veinsmobility 	totalDistance 	3409.1905342352
scalar RSUExampleScenario.node[287].veinsmobility 	totalCO2Emission 	704.43676917246
scalar RSUExampleScenario.node[288].veinsmobility 	startTime 	1728.1
scalar RSUExampleScenario.node[288].veinsmobility 	totalTime 	226.7
scalar RSUExampleScenario.node[288].veinsmobility 	stopTime 	1954.9
scalar RSUExampleScenario.node[288].veinsmobility 	minSpeed 	0.25232090690639
scalar RSUExampleScenario.node[288].veinsmobility 	maxSpeed 	18.999629566523
scalar RSUExampleScenario.node[288].veinsmobility 	totalDistance 	3409.4347085933
scalar RSUExampleScenario.node[288].veinsmobility 	totalCO2Emission 	706.12534613863
scalar RSUExampleScenario.node[289].veinsmobility 	startTime 	1734.1
scalar RSUExampleScenario.node[289].veinsmobility 	totalTime 	227
scalar RSUExampleScenario.node[289].veinsmobility 	stopTime 	1961.2
scalar RSUExampleScenario.node[289].veinsmobility 	minSpeed 	0.25961560898693
scalar RSUExampleScenario.node[289].veinsmobility 	maxSpeed 	18.999884632854
scalar RSUExampleScenario.node[289].veinsmobility 	totalDistance 	3409.2185283608
scalar RSUExampleScenario.node[289].veinsmobility 	totalCO2Emission 	709.44909090766
scalar RSUExampleScenario.node[290].veinsmobility 	startTime 	1740.1
scalar RSUExampleScenario.node[290].veinsmobility 	totalTime 	226.7
scalar RSUExampleScenario.node[290].veinsmobility 	stopTime 	1966.9
scalar RSUExampleScenario.node[290].veinsmobility 	minSpeed 	0.25007293334883
scalar RSUExampleScenario.node[290].veinsmobility 	maxSpeed 	18.999760251387
scalar RSUExampleScenario.node[290].veinsmobility 	totalDistance 	3409.5687397659
scalar RSUExampleScenario.node[290].veinsmobility 	totalCO2Emission 	710.88624363319
scalar RSUExampleScenario.node[291].veinsmobility 	startTime 	1746.1
scalar RSUExampleScenario.node[291].veinsmobility 	totalTime 	227.5
scalar RSUExampleScenario.node[291].veinsmobility 	stopTime 	1973.7
scalar RSUExampleScenario.node[291].veinsmobility 	minSpeed 	0.24802542154468
scalar RSUExampleScenario.node[291].veinsmobility 	maxSpeed 	18.999295857432
scalar RSUExampleScenario.node[291].veinsmobility 	totalDistance 	3409.6510702814
scalar RSUExampleScenario.node[291].veinsmobility 	totalCO2Emission 	710.54818348599
scalar RSUExampleScenario.node[292].veinsmobility 	startTime 	1752.1
scalar RSUExampleScenario.node[292].veinsmobility 	totalTime 	227
scalar RSUExampleScenario.node[292].veinsmobility 	stopTime 	1979.2
scalar RSUExampleScenario.node[292].veinsmobility 	minSpeed 	0.25088226099475
scalar RSUExampleScenario.node[292].veinsmobility 	maxSpeed 	18.999346653314
scalar RSUExampleScenario.node[292].veinsmobility 	totalDistance 	3409.2067428709
scalar RSUExampleScenario.node[292].veinsmobility 	totalCO2Emission 	708.50878049306
scalar RSUExampleScenario.node[293].veinsmobility 	startTime 	1758.1
scalar RSUExampleScenario.node[293].veinsmobility 	totalTime 	227
scalar RSUExampleScenario.node[293].veinsmobility 	stopTime 	1985.2
scalar RSUExampleScenario.node[293].veinsmobility 	minSpeed 	0.24779944110243
scalar RSUExampleScenario.node[293].veinsmobility 	maxSpeed 	18.999939822194
scalar RSUExampleScenario.node[293].veinsmobility 	totalDistance 	3409.6285526415
scalar RSUExampleScenario.node[293].veinsmobility 	totalCO2Emission 	710.10822349245
scalar RSUExampleScenario.node[294].veinsmobility 	startTime 	1764.1
scalar RSUExampleScenario.node[294].veinsmobility 	totalTime 	227.1
scalar RSUExampleScenario.node[294].veinsmobility 	stopTime 	1991.3
scalar RSUExampleScenario.node[294].veinsmobility 	minSpeed 	0.25310712319426
scalar RSUExampleScenario.node[294].veinsmobility 	maxSpeed 	18.999808165091
scalar RSUExampleScenario.node[294].veinsmobility 	totalDistance 	3409.4568034351
scalar RSUExampleScenario.node[294].veinsmobility 	totalCO2Emission 	708.58639946184
scalar RSUExampleScenario.node[295].veinsmobility 	startTime 	1770.1
scalar RSUExampleScenario.node[295].veinsmobility 	totalTime 	227
scalar RSUExampleScenario.node[295].veinsmobility 	stopTime 	1997.2
scalar RSUExampleScenario.node[295].veinsmobility 	minSpeed 	0.25039018771914
scalar RSUExampleScenario.node[295].veinsmobility 	maxSpeed 	18.999817114184
scalar RSUExampleScenario.node[295].veinsmobility 	totalDistance 	3409.7447950288
scalar RSUExampleScenario.node[295].veinsmobility 	totalCO2Emission 	703.26626703346
scalar RSUExampleScenario.node[296].veinsmobility 	startTime 	1776.1
scalar RSUExampleScenario.node[296].veinsmobility 	totalTime 	223.8
scalar RSUExampleScenario.node[296].veinsmobility 	stopTime 	2000
scalar RSUExampleScenario.node[296].veinsmobility 	minSpeed 	0.25046702478151
scalar RSUExampleScenario.node[296].veinsmobility 	maxSpeed 	18.999590349598
scalar RSUExampleScenario.node[296].veinsmobility 	totalDistance 	3388.1643202967
scalar RSUExampleScenario.node[296].veinsmobility 	totalCO2Emission 	692.86873758578
scalar RSUExampleScenario.node[297].veinsmobility 	startTime 	1782.1
scalar RSUExampleScenario.node[297].veinsmobility 	totalTime 	217.8
scalar RSUExampleScenario.node[297].veinsmobility 	stopTime 	2000
scalar RSUExampleScenario.node[297].veinsmobility 	minSpeed 	0.25032628843095
scalar RSUExampleScenario.node[297].veinsmobility 	maxSpeed 	18.99995746413
scalar RSUExampleScenario.node[297].veinsmobility 	totalDistance 	3325.6860555271
scalar RSUExampleScenario.node[297].veinsmobility 	totalCO2Emission 	689.43648586984
scalar RSUExampleScenario.node[298].veinsmobility 	startTime 	1788.1
scalar RSUExampleScenario.node[298].veinsmobility 	totalTime 	211.8
scalar RSUExampleScenario.node[298].veinsmobility 	stopTime 	2000
scalar RSUExampleScenario.node[298].veinsmobility 	minSpeed 	0.25992282695998
scalar RSUExampleScenario.node[298].veinsmobility 	maxSpeed 	18.999995352805
scalar RSUExampleScenario.node[298].veinsmobility 	totalDistance 	3241.7967288882
scalar RSUExampleScenario.node[298].veinsmobility 	totalCO2Emission 	670.49214385613
scalar RSUExampleScenario.node[299].veinsmobility 	startTime 	1794.1
scalar RSUExampleScenario.node[299].veinsmobility 	totalTime 	205.8
scalar RSUExampleScenario.node[299].veinsmobility 	stopTime 	2000
scalar RSUExampleScenario.node[299].veinsmobility 	minSpeed 	0.25583736250154
scalar RSUExampleScenario.node[299].veinsmobility 	maxSpeed 	18.999952941004
scalar RSUExampleScenario.node[299].veinsmobility 	totalDistance 	3155.8486077802
scalar RSUExampleScenario.node[299].veinsmobility 	totalCO2Emission 	656.0592983979
