version 2
run statistic-2042-20150311-02:16:16-7680
attr c 13
attr configname statistic
attr datetime 20150311-02:16:16
attr experiment statistic
attr inifile omnetpp.ini
attr iterationvars "$p=1/8, $c=13"
attr iterationvars2 "$p=1/8, $c=13, $repetition=42"
attr measurement "$p=1/8, $c=13"
attr network RSUExampleScenario
attr p 1/8
attr processid 7680
attr repetition 42
attr replication #42
attr resultdir results
attr runnumber 2042
attr seedset 2042

scalar . 	c 	13
scalar RSUExampleScenario.rsu[0].appl 	NumberofCH 	14
scalar RSUExampleScenario.rsu[0].appl 	NumberofON 	85
scalar RSUExampleScenario.rsu[0].appl 	NumberofFN 	1
scalar RSUExampleScenario.rsu[0].appl 	meanClusterNodes 	6.0714285714286
scalar RSUExampleScenario.rsu[0].appl 	varClusterNodes 	3.4941642310386
scalar RSUExampleScenario.rsu[0].appl 	sumCHutility 	537.88024078412
scalar RSUExampleScenario.rsu[0].appl 	meanCHutility 	38.420017198866
scalar RSUExampleScenario.rsu[0].appl 	varCHutility 	1.990097614258
scalar RSUExampleScenario.rsu[0].appl 	sumDiffCHutility 	-31529.064949737
scalar RSUExampleScenario.rsu[0].appl 	meanDiffCHutility 	-2252.0760678383
scalar RSUExampleScenario.rsu[0].appl 	varDiffCHutility 	1247.2564361494
scalar RSUExampleScenario.rsu[0].appl 	expectedCHutility 	477.7012144752
scalar RSUExampleScenario.rsu[0].appl 	meanExpectedCHutility 	34.121515319657
scalar RSUExampleScenario.rsu[0].appl 	varExpectedCHutility 	2.1707855044303
