version 2
run statisticLeach-427-20150323-08:51:26-12128
attr c 15
attr configname statisticLeach
attr datetime 20150323-08:51:26
attr experiment statisticLeach
attr inifile omnetpp.ini
attr iterationvars "$p=1/10, $c=15"
attr iterationvars2 "$p=1/10, $c=15, $repetition=7"
attr measurement "$p=1/10, $c=15"
attr network RSUExampleScenario
attr p 1/10
attr processid 12128
attr repetition 7
attr replication #7
attr resultdir results
attr runnumber 427
attr seedset 427

scalar . 	c 	15
scalar RSUExampleScenario.node[0].appl 	meanClusterNodes 	1
scalar RSUExampleScenario.node[0].appl 	meanClusterHeadUtility 	18.463848982479
scalar RSUExampleScenario.node[0].appl 	NumberofCH 	0.054054054054054
scalar RSUExampleScenario.node[0].appl 	NumberofON 	0.18918918918919
scalar RSUExampleScenario.node[0].appl 	NumberofFN 	0.75675675675676
scalar RSUExampleScenario.node[0].veinsmobility 	startTime 	0.1
scalar RSUExampleScenario.node[0].veinsmobility 	totalTime 	449.9
scalar RSUExampleScenario.node[0].veinsmobility 	stopTime 	450
scalar RSUExampleScenario.node[0].veinsmobility 	minSpeed 	0
scalar RSUExampleScenario.node[0].veinsmobility 	maxSpeed 	13.999976858674
scalar RSUExampleScenario.node[0].veinsmobility 	totalDistance 	3133.8600682247
scalar RSUExampleScenario.node[0].veinsmobility 	totalCO2Emission 	840.17828209188
scalar RSUExampleScenario.node[1].appl 	meanClusterNodes 	6.5
scalar RSUExampleScenario.node[1].appl 	meanClusterHeadUtility 	8.6235334452535
scalar RSUExampleScenario.node[1].appl 	NumberofCH 	0.10810810810811
scalar RSUExampleScenario.node[1].appl 	NumberofON 	0.24324324324324
scalar RSUExampleScenario.node[1].appl 	NumberofFN 	0.64864864864865
scalar RSUExampleScenario.node[1].veinsmobility 	startTime 	2.5
scalar RSUExampleScenario.node[1].veinsmobility 	totalTime 	447.5
scalar RSUExampleScenario.node[1].veinsmobility 	stopTime 	450
scalar RSUExampleScenario.node[1].veinsmobility 	minSpeed 	0
scalar RSUExampleScenario.node[1].veinsmobility 	maxSpeed 	13.999951227654
scalar RSUExampleScenario.node[1].veinsmobility 	totalDistance 	3078.9989195123
scalar RSUExampleScenario.node[1].veinsmobility 	totalCO2Emission 	823.443184845
scalar RSUExampleScenario.node[10].appl 	meanClusterNodes 	2.5
scalar RSUExampleScenario.node[10].appl 	meanClusterHeadUtility 	19.504806100556
scalar RSUExampleScenario.node[10].appl 	NumberofCH 	0.054054054054054
scalar RSUExampleScenario.node[10].appl 	NumberofON 	0.48648648648649
scalar RSUExampleScenario.node[10].appl 	NumberofFN 	0.45945945945946
scalar RSUExampleScenario.node[10].veinsmobility 	startTime 	24.2
scalar RSUExampleScenario.node[10].veinsmobility 	totalTime 	425.8
scalar RSUExampleScenario.node[10].veinsmobility 	stopTime 	450
scalar RSUExampleScenario.node[10].veinsmobility 	minSpeed 	0
scalar RSUExampleScenario.node[10].veinsmobility 	maxSpeed 	13.999776143986
scalar RSUExampleScenario.node[10].veinsmobility 	totalDistance 	2794.1831712964
scalar RSUExampleScenario.node[10].veinsmobility 	totalCO2Emission 	761.58809225334
scalar RSUExampleScenario.node[11].appl 	meanClusterNodes 	4
scalar RSUExampleScenario.node[11].appl 	meanClusterHeadUtility 	9.1645165661411
scalar RSUExampleScenario.node[11].appl 	NumberofCH 	0.10810810810811
scalar RSUExampleScenario.node[11].appl 	NumberofON 	0.59459459459459
scalar RSUExampleScenario.node[11].appl 	NumberofFN 	0.2972972972973
scalar RSUExampleScenario.node[11].veinsmobility 	startTime 	26.6
scalar RSUExampleScenario.node[11].veinsmobility 	totalTime 	423.4
scalar RSUExampleScenario.node[11].veinsmobility 	stopTime 	450
scalar RSUExampleScenario.node[11].veinsmobility 	minSpeed 	0
scalar RSUExampleScenario.node[11].veinsmobility 	maxSpeed 	13.999855212162
scalar RSUExampleScenario.node[11].veinsmobility 	totalDistance 	2753.3367180208
scalar RSUExampleScenario.node[11].veinsmobility 	totalCO2Emission 	754.25505367075
scalar RSUExampleScenario.node[12].appl 	meanClusterNodes 	4.75
scalar RSUExampleScenario.node[12].appl 	meanClusterHeadUtility 	8.8961966216518
scalar RSUExampleScenario.node[12].appl 	NumberofCH 	0.10810810810811
scalar RSUExampleScenario.node[12].appl 	NumberofON 	0.72972972972973
scalar RSUExampleScenario.node[12].appl 	NumberofFN 	0.16216216216216
scalar RSUExampleScenario.node[12].veinsmobility 	startTime 	29
scalar RSUExampleScenario.node[12].veinsmobility 	totalTime 	421
scalar RSUExampleScenario.node[12].veinsmobility 	stopTime 	450
scalar RSUExampleScenario.node[12].veinsmobility 	minSpeed 	0
scalar RSUExampleScenario.node[12].veinsmobility 	maxSpeed 	13.999950086037
scalar RSUExampleScenario.node[12].veinsmobility 	totalDistance 	2722.2964035128
scalar RSUExampleScenario.node[12].veinsmobility 	totalCO2Emission 	745.95950776836
scalar RSUExampleScenario.node[13].appl 	meanClusterNodes 	6.25
scalar RSUExampleScenario.node[13].appl 	meanClusterHeadUtility 	8.9343141596617
scalar RSUExampleScenario.node[13].appl 	NumberofCH 	0.10810810810811
scalar RSUExampleScenario.node[13].appl 	NumberofON 	0.48648648648649
scalar RSUExampleScenario.node[13].appl 	NumberofFN 	0.40540540540541
scalar RSUExampleScenario.node[13].veinsmobility 	startTime 	31.4
scalar RSUExampleScenario.node[13].veinsmobility 	totalTime 	418.6
scalar RSUExampleScenario.node[13].veinsmobility 	stopTime 	450
scalar RSUExampleScenario.node[13].veinsmobility 	minSpeed 	0
scalar RSUExampleScenario.node[13].veinsmobility 	maxSpeed 	13.999966065686
scalar RSUExampleScenario.node[13].veinsmobility 	totalDistance 	2680.4732768623
scalar RSUExampleScenario.node[13].veinsmobility 	totalCO2Emission 	740.13590878871
scalar RSUExampleScenario.node[14].appl 	meanClusterNodes 	3.6666666666667
scalar RSUExampleScenario.node[14].appl 	meanClusterHeadUtility 	10.674548149689
scalar RSUExampleScenario.node[14].appl 	NumberofCH 	0.081081081081081
scalar RSUExampleScenario.node[14].appl 	NumberofON 	0.62162162162162
scalar RSUExampleScenario.node[14].appl 	NumberofFN 	0.2972972972973
scalar RSUExampleScenario.node[14].veinsmobility 	startTime 	33.8
scalar RSUExampleScenario.node[14].veinsmobility 	totalTime 	416.2
scalar RSUExampleScenario.node[14].veinsmobility 	stopTime 	450
scalar RSUExampleScenario.node[14].veinsmobility 	minSpeed 	0
scalar RSUExampleScenario.node[14].veinsmobility 	maxSpeed 	13.999942924087
scalar RSUExampleScenario.node[14].veinsmobility 	totalDistance 	2653.5504436569
scalar RSUExampleScenario.node[14].veinsmobility 	totalCO2Emission 	730.3982079567
scalar RSUExampleScenario.node[15].appl 	meanClusterNodes 	3.75
scalar RSUExampleScenario.node[15].appl 	meanClusterHeadUtility 	8.2883306785847
scalar RSUExampleScenario.node[15].appl 	NumberofCH 	0.10810810810811
scalar RSUExampleScenario.node[15].appl 	NumberofON 	0.78378378378378
scalar RSUExampleScenario.node[15].appl 	NumberofFN 	0.10810810810811
scalar RSUExampleScenario.node[15].veinsmobility 	startTime 	36.2
scalar RSUExampleScenario.node[15].veinsmobility 	totalTime 	413.8
scalar RSUExampleScenario.node[15].veinsmobility 	stopTime 	450
scalar RSUExampleScenario.node[15].veinsmobility 	minSpeed 	0
scalar RSUExampleScenario.node[15].veinsmobility 	maxSpeed 	13.999983290741
scalar RSUExampleScenario.node[15].veinsmobility 	totalDistance 	2614.3791135912
scalar RSUExampleScenario.node[15].veinsmobility 	totalCO2Emission 	729.29364416178
scalar RSUExampleScenario.node[16].appl 	meanClusterNodes 	7
scalar RSUExampleScenario.node[16].appl 	meanClusterHeadUtility 	16.982076758311
scalar RSUExampleScenario.node[16].appl 	NumberofCH 	0.054054054054054
scalar RSUExampleScenario.node[16].appl 	NumberofON 	0.48648648648649
scalar RSUExampleScenario.node[16].appl 	NumberofFN 	0.45945945945946
scalar RSUExampleScenario.node[16].veinsmobility 	startTime 	38.6
scalar RSUExampleScenario.node[16].veinsmobility 	totalTime 	411.4
scalar RSUExampleScenario.node[16].veinsmobility 	stopTime 	450
scalar RSUExampleScenario.node[16].veinsmobility 	minSpeed 	0
scalar RSUExampleScenario.node[16].veinsmobility 	maxSpeed 	13.999828425692
scalar RSUExampleScenario.node[16].veinsmobility 	totalDistance 	2583.733388281
scalar RSUExampleScenario.node[16].veinsmobility 	totalCO2Emission 	725.28458984943
scalar RSUExampleScenario.node[17].appl 	meanClusterNodes 	3
scalar RSUExampleScenario.node[17].appl 	meanClusterHeadUtility 	9.567482582988
scalar RSUExampleScenario.node[17].appl 	NumberofCH 	0.10810810810811
scalar RSUExampleScenario.node[17].appl 	NumberofON 	0.75675675675676
scalar RSUExampleScenario.node[17].appl 	NumberofFN 	0.13513513513514
scalar RSUExampleScenario.node[17].veinsmobility 	startTime 	41
scalar RSUExampleScenario.node[17].veinsmobility 	totalTime 	409
scalar RSUExampleScenario.node[17].veinsmobility 	stopTime 	450
scalar RSUExampleScenario.node[17].veinsmobility 	minSpeed 	0
scalar RSUExampleScenario.node[17].veinsmobility 	maxSpeed 	13.999805442304
scalar RSUExampleScenario.node[17].veinsmobility 	totalDistance 	2538.6407016743
scalar RSUExampleScenario.node[17].veinsmobility 	totalCO2Emission 	718.35912841514
scalar RSUExampleScenario.node[18].appl 	meanClusterNodes 	5
scalar RSUExampleScenario.node[18].appl 	meanClusterHeadUtility 	8.5920324702135
scalar RSUExampleScenario.node[18].appl 	NumberofCH 	0.10810810810811
scalar RSUExampleScenario.node[18].appl 	NumberofON 	0.54054054054054
scalar RSUExampleScenario.node[18].appl 	NumberofFN 	0.35135135135135
scalar RSUExampleScenario.node[18].veinsmobility 	startTime 	43.4
scalar RSUExampleScenario.node[18].veinsmobility 	totalTime 	406.6
scalar RSUExampleScenario.node[18].veinsmobility 	stopTime 	450
scalar RSUExampleScenario.node[18].veinsmobility 	minSpeed 	0
scalar RSUExampleScenario.node[18].veinsmobility 	maxSpeed 	13.999957888941
scalar RSUExampleScenario.node[18].veinsmobility 	totalDistance 	2510.3805072969
scalar RSUExampleScenario.node[18].veinsmobility 	totalCO2Emission 	717.93883312792
scalar RSUExampleScenario.node[19].appl 	meanClusterNodes 	3.5
scalar RSUExampleScenario.node[19].appl 	meanClusterHeadUtility 	6.0482987301515
scalar RSUExampleScenario.node[19].appl 	NumberofCH 	0.16216216216216
scalar RSUExampleScenario.node[19].appl 	NumberofON 	0.59459459459459
scalar RSUExampleScenario.node[19].appl 	NumberofFN 	0.24324324324324
scalar RSUExampleScenario.node[19].veinsmobility 	startTime 	45.8
scalar RSUExampleScenario.node[19].veinsmobility 	totalTime 	404.2
scalar RSUExampleScenario.node[19].veinsmobility 	stopTime 	450
scalar RSUExampleScenario.node[19].veinsmobility 	minSpeed 	0
scalar RSUExampleScenario.node[19].veinsmobility 	maxSpeed 	13.999975146051
scalar RSUExampleScenario.node[19].veinsmobility 	totalDistance 	2469.6400196262
scalar RSUExampleScenario.node[19].veinsmobility 	totalCO2Emission 	707.97417953164
scalar RSUExampleScenario.node[2].appl 	meanClusterNodes 	3.3333333333333
scalar RSUExampleScenario.node[2].appl 	meanClusterHeadUtility 	6.3219756962457
scalar RSUExampleScenario.node[2].appl 	NumberofCH 	0.16216216216216
scalar RSUExampleScenario.node[2].appl 	NumberofON 	0.27027027027027
scalar RSUExampleScenario.node[2].appl 	NumberofFN 	0.56756756756757
scalar RSUExampleScenario.node[2].veinsmobility 	startTime 	4.9
scalar RSUExampleScenario.node[2].veinsmobility 	totalTime 	445.1
scalar RSUExampleScenario.node[2].veinsmobility 	stopTime 	450
scalar RSUExampleScenario.node[2].veinsmobility 	minSpeed 	0
scalar RSUExampleScenario.node[2].veinsmobility 	maxSpeed 	13.99999170288
scalar RSUExampleScenario.node[2].veinsmobility 	totalDistance 	3040.1326536583
scalar RSUExampleScenario.node[2].veinsmobility 	totalCO2Emission 	819.94402058781
scalar RSUExampleScenario.node[20].appl 	meanClusterNodes 	5.8333333333333
scalar RSUExampleScenario.node[20].appl 	meanClusterHeadUtility 	5.5259598538631
scalar RSUExampleScenario.node[20].appl 	NumberofCH 	0.16216216216216
scalar RSUExampleScenario.node[20].appl 	NumberofON 	0.62162162162162
scalar RSUExampleScenario.node[20].appl 	NumberofFN 	0.21621621621622
scalar RSUExampleScenario.node[20].veinsmobility 	startTime 	48.3
scalar RSUExampleScenario.node[20].veinsmobility 	totalTime 	401.7
scalar RSUExampleScenario.node[20].veinsmobility 	stopTime 	450
scalar RSUExampleScenario.node[20].veinsmobility 	minSpeed 	0
scalar RSUExampleScenario.node[20].veinsmobility 	maxSpeed 	13.999943087504
scalar RSUExampleScenario.node[20].veinsmobility 	totalDistance 	2442.6790611329
scalar RSUExampleScenario.node[20].veinsmobility 	totalCO2Emission 	702.55293586014
scalar RSUExampleScenario.node[21].appl 	meanClusterNodes 	3
scalar RSUExampleScenario.node[21].appl 	meanClusterHeadUtility 	5.4669389280689
scalar RSUExampleScenario.node[21].appl 	NumberofCH 	0.16216216216216
scalar RSUExampleScenario.node[21].appl 	NumberofON 	0.37837837837838
scalar RSUExampleScenario.node[21].appl 	NumberofFN 	0.45945945945946
scalar RSUExampleScenario.node[21].veinsmobility 	startTime 	50.7
scalar RSUExampleScenario.node[21].veinsmobility 	totalTime 	399.3
scalar RSUExampleScenario.node[21].veinsmobility 	stopTime 	450
scalar RSUExampleScenario.node[21].veinsmobility 	minSpeed 	0
scalar RSUExampleScenario.node[21].veinsmobility 	maxSpeed 	13.999962093739
scalar RSUExampleScenario.node[21].veinsmobility 	totalDistance 	2403.4600216078
scalar RSUExampleScenario.node[21].veinsmobility 	totalCO2Emission 	696.63192937103
scalar RSUExampleScenario.node[22].appl 	meanClusterNodes 	2
scalar RSUExampleScenario.node[22].appl 	meanClusterHeadUtility 	8.0996190643529
scalar RSUExampleScenario.node[22].appl 	NumberofCH 	0.10810810810811
scalar RSUExampleScenario.node[22].appl 	NumberofON 	0.56756756756757
scalar RSUExampleScenario.node[22].appl 	NumberofFN 	0.32432432432432
scalar RSUExampleScenario.node[22].veinsmobility 	startTime 	53.1
scalar RSUExampleScenario.node[22].veinsmobility 	totalTime 	396.9
scalar RSUExampleScenario.node[22].veinsmobility 	stopTime 	450
scalar RSUExampleScenario.node[22].veinsmobility 	minSpeed 	0
scalar RSUExampleScenario.node[22].veinsmobility 	maxSpeed 	13.999961303896
scalar RSUExampleScenario.node[22].veinsmobility 	totalDistance 	2373.2141127933
scalar RSUExampleScenario.node[22].veinsmobility 	totalCO2Emission 	687.00092623825
scalar RSUExampleScenario.node[23].appl 	meanClusterNodes 	6
scalar RSUExampleScenario.node[23].appl 	meanClusterHeadUtility 	16.733768028168
scalar RSUExampleScenario.node[23].appl 	NumberofCH 	0.054054054054054
scalar RSUExampleScenario.node[23].appl 	NumberofON 	0.40540540540541
scalar RSUExampleScenario.node[23].appl 	NumberofFN 	0.54054054054054
scalar RSUExampleScenario.node[23].veinsmobility 	startTime 	55.5
scalar RSUExampleScenario.node[23].veinsmobility 	totalTime 	394.5
scalar RSUExampleScenario.node[23].veinsmobility 	stopTime 	450
scalar RSUExampleScenario.node[23].veinsmobility 	minSpeed 	0
scalar RSUExampleScenario.node[23].veinsmobility 	maxSpeed 	13.999985113721
scalar RSUExampleScenario.node[23].veinsmobility 	totalDistance 	2334.1461481997
scalar RSUExampleScenario.node[23].veinsmobility 	totalCO2Emission 	687.71560867507
scalar RSUExampleScenario.node[24].appl 	meanClusterNodes 	3.8333333333333
scalar RSUExampleScenario.node[24].appl 	meanClusterHeadUtility 	5.4854774118351
scalar RSUExampleScenario.node[24].appl 	NumberofCH 	0.16216216216216
scalar RSUExampleScenario.node[24].appl 	NumberofON 	0.45945945945946
scalar RSUExampleScenario.node[24].appl 	NumberofFN 	0.37837837837838
scalar RSUExampleScenario.node[24].veinsmobility 	startTime 	57.9
scalar RSUExampleScenario.node[24].veinsmobility 	totalTime 	392.1
scalar RSUExampleScenario.node[24].veinsmobility 	stopTime 	450
scalar RSUExampleScenario.node[24].veinsmobility 	minSpeed 	0
scalar RSUExampleScenario.node[24].veinsmobility 	maxSpeed 	13.999985935164
scalar RSUExampleScenario.node[24].veinsmobility 	totalDistance 	2306.5489462376
scalar RSUExampleScenario.node[24].veinsmobility 	totalCO2Emission 	679.04017546552
scalar RSUExampleScenario.node[25].appl 	meanClusterNodes 	4.5
scalar RSUExampleScenario.node[25].appl 	meanClusterHeadUtility 	15.952233521071
scalar RSUExampleScenario.node[25].appl 	NumberofCH 	0.054054054054054
scalar RSUExampleScenario.node[25].appl 	NumberofON 	0.81081081081081
scalar RSUExampleScenario.node[25].appl 	NumberofFN 	0.13513513513514
scalar RSUExampleScenario.node[25].veinsmobility 	startTime 	60.3
scalar RSUExampleScenario.node[25].veinsmobility 	totalTime 	389.7
scalar RSUExampleScenario.node[25].veinsmobility 	stopTime 	450
scalar RSUExampleScenario.node[25].veinsmobility 	minSpeed 	0
scalar RSUExampleScenario.node[25].veinsmobility 	maxSpeed 	13.999966895755
scalar RSUExampleScenario.node[25].veinsmobility 	totalDistance 	2268.8160248377
scalar RSUExampleScenario.node[25].veinsmobility 	totalCO2Emission 	672.31821267316
scalar RSUExampleScenario.node[26].appl 	meanClusterNodes 	3.5
scalar RSUExampleScenario.node[26].appl 	meanClusterHeadUtility 	8.1900849786481
scalar RSUExampleScenario.node[26].appl 	NumberofCH 	0.10810810810811
scalar RSUExampleScenario.node[26].appl 	NumberofON 	0.51351351351351
scalar RSUExampleScenario.node[26].appl 	NumberofFN 	0.37837837837838
scalar RSUExampleScenario.node[26].veinsmobility 	startTime 	62.7
scalar RSUExampleScenario.node[26].veinsmobility 	totalTime 	387.3
scalar RSUExampleScenario.node[26].veinsmobility 	stopTime 	450
scalar RSUExampleScenario.node[26].veinsmobility 	minSpeed 	0
scalar RSUExampleScenario.node[26].veinsmobility 	maxSpeed 	13.999990049643
scalar RSUExampleScenario.node[26].veinsmobility 	totalDistance 	2238.7782099864
scalar RSUExampleScenario.node[26].veinsmobility 	totalCO2Emission 	665.74192287847
scalar RSUExampleScenario.node[27].appl 	meanClusterNodes 	7.6666666666667
scalar RSUExampleScenario.node[27].appl 	meanClusterHeadUtility 	5.6405514672196
scalar RSUExampleScenario.node[27].appl 	NumberofCH 	0.16216216216216
scalar RSUExampleScenario.node[27].appl 	NumberofON 	0.37837837837838
scalar RSUExampleScenario.node[27].appl 	NumberofFN 	0.45945945945946
scalar RSUExampleScenario.node[27].veinsmobility 	startTime 	65.1
scalar RSUExampleScenario.node[27].veinsmobility 	totalTime 	384.9
scalar RSUExampleScenario.node[27].veinsmobility 	stopTime 	450
scalar RSUExampleScenario.node[27].veinsmobility 	minSpeed 	0
scalar RSUExampleScenario.node[27].veinsmobility 	maxSpeed 	13.999943021731
scalar RSUExampleScenario.node[27].veinsmobility 	totalDistance 	2201.1598926446
scalar RSUExampleScenario.node[27].veinsmobility 	totalCO2Emission 	662.26011355175
scalar RSUExampleScenario.node[28].appl 	meanClusterNodes 	1.5
scalar RSUExampleScenario.node[28].appl 	meanClusterHeadUtility 	5.6166213027395
scalar RSUExampleScenario.node[28].appl 	NumberofCH 	0.16216216216216
scalar RSUExampleScenario.node[28].appl 	NumberofON 	0.67567567567568
scalar RSUExampleScenario.node[28].appl 	NumberofFN 	0.16216216216216
scalar RSUExampleScenario.node[28].veinsmobility 	startTime 	67.5
scalar RSUExampleScenario.node[28].veinsmobility 	totalTime 	382.5
scalar RSUExampleScenario.node[28].veinsmobility 	stopTime 	450
scalar RSUExampleScenario.node[28].veinsmobility 	minSpeed 	0
scalar RSUExampleScenario.node[28].veinsmobility 	maxSpeed 	13.99990436652
scalar RSUExampleScenario.node[28].veinsmobility 	totalDistance 	2168.5624579837
scalar RSUExampleScenario.node[28].veinsmobility 	totalCO2Emission 	659.17598132568
scalar RSUExampleScenario.node[29].appl 	meanClusterNodes 	8.5
scalar RSUExampleScenario.node[29].appl 	meanClusterHeadUtility 	8.2442306944237
scalar RSUExampleScenario.node[29].appl 	NumberofCH 	0.10810810810811
scalar RSUExampleScenario.node[29].appl 	NumberofON 	0.62162162162162
scalar RSUExampleScenario.node[29].appl 	NumberofFN 	0.27027027027027
scalar RSUExampleScenario.node[29].veinsmobility 	startTime 	69.9
scalar RSUExampleScenario.node[29].veinsmobility 	totalTime 	380.1
scalar RSUExampleScenario.node[29].veinsmobility 	stopTime 	450
scalar RSUExampleScenario.node[29].veinsmobility 	minSpeed 	0
scalar RSUExampleScenario.node[29].veinsmobility 	maxSpeed 	13.999977300768
scalar RSUExampleScenario.node[29].veinsmobility 	totalDistance 	2133.5321472839
scalar RSUExampleScenario.node[29].veinsmobility 	totalCO2Emission 	646.9958282695
scalar RSUExampleScenario.node[3].appl 	meanClusterNodes 	4.25
scalar RSUExampleScenario.node[3].appl 	meanClusterHeadUtility 	9.331289672413
scalar RSUExampleScenario.node[3].appl 	NumberofCH 	0.10810810810811
scalar RSUExampleScenario.node[3].appl 	NumberofON 	0.54054054054054
scalar RSUExampleScenario.node[3].appl 	NumberofFN 	0.35135135135135
scalar RSUExampleScenario.node[3].veinsmobility 	startTime 	7.3
scalar RSUExampleScenario.node[3].veinsmobility 	totalTime 	442.7
scalar RSUExampleScenario.node[3].veinsmobility 	stopTime 	450
scalar RSUExampleScenario.node[3].veinsmobility 	minSpeed 	0
scalar RSUExampleScenario.node[3].veinsmobility 	maxSpeed 	13.999959779177
scalar RSUExampleScenario.node[3].veinsmobility 	totalDistance 	2994.5936301705
scalar RSUExampleScenario.node[3].veinsmobility 	totalCO2Emission 	813.81673810618
scalar RSUExampleScenario.node[30].appl 	meanClusterNodes 	5
scalar RSUExampleScenario.node[30].appl 	meanClusterHeadUtility 	7.9060906716924
scalar RSUExampleScenario.node[30].appl 	NumberofCH 	0.10810810810811
scalar RSUExampleScenario.node[30].appl 	NumberofON 	0.48648648648649
scalar RSUExampleScenario.node[30].appl 	NumberofFN 	0.40540540540541
scalar RSUExampleScenario.node[30].veinsmobility 	startTime 	72.4
scalar RSUExampleScenario.node[30].veinsmobility 	totalTime 	377.6
scalar RSUExampleScenario.node[30].veinsmobility 	stopTime 	450
scalar RSUExampleScenario.node[30].veinsmobility 	minSpeed 	0
scalar RSUExampleScenario.node[30].veinsmobility 	maxSpeed 	13.999946963713
scalar RSUExampleScenario.node[30].veinsmobility 	totalDistance 	2101.9347446291
scalar RSUExampleScenario.node[30].veinsmobility 	totalCO2Emission 	641.62060947377
scalar RSUExampleScenario.node[31].appl 	meanClusterNodes 	4.75
scalar RSUExampleScenario.node[31].appl 	meanClusterHeadUtility 	7.9209858585261
scalar RSUExampleScenario.node[31].appl 	NumberofCH 	0.10810810810811
scalar RSUExampleScenario.node[31].appl 	NumberofON 	0.7027027027027
scalar RSUExampleScenario.node[31].appl 	NumberofFN 	0.18918918918919
scalar RSUExampleScenario.node[31].veinsmobility 	startTime 	74.8
scalar RSUExampleScenario.node[31].veinsmobility 	totalTime 	375.2
scalar RSUExampleScenario.node[31].veinsmobility 	stopTime 	450
scalar RSUExampleScenario.node[31].veinsmobility 	minSpeed 	0
scalar RSUExampleScenario.node[31].veinsmobility 	maxSpeed 	13.999946020925
scalar RSUExampleScenario.node[31].veinsmobility 	totalDistance 	2067.1047172091
scalar RSUExampleScenario.node[31].veinsmobility 	totalCO2Emission 	638.23559814443
scalar RSUExampleScenario.node[32].appl 	meanClusterNodes 	3.25
scalar RSUExampleScenario.node[32].appl 	meanClusterHeadUtility 	8.919697099652
scalar RSUExampleScenario.node[32].appl 	NumberofCH 	0.10810810810811
scalar RSUExampleScenario.node[32].appl 	NumberofON 	0.7027027027027
scalar RSUExampleScenario.node[32].appl 	NumberofFN 	0.18918918918919
scalar RSUExampleScenario.node[32].veinsmobility 	startTime 	77.2
scalar RSUExampleScenario.node[32].veinsmobility 	totalTime 	372.8
scalar RSUExampleScenario.node[32].veinsmobility 	stopTime 	450
scalar RSUExampleScenario.node[32].veinsmobility 	minSpeed 	0
scalar RSUExampleScenario.node[32].veinsmobility 	maxSpeed 	13.999966188574
scalar RSUExampleScenario.node[32].veinsmobility 	totalDistance 	2032.7003659729
scalar RSUExampleScenario.node[32].veinsmobility 	totalCO2Emission 	632.46118306808
scalar RSUExampleScenario.node[33].appl 	meanClusterNodes 	7
scalar RSUExampleScenario.node[33].appl 	meanClusterHeadUtility 	8.846757219185
scalar RSUExampleScenario.node[33].appl 	NumberofCH 	0.10810810810811
scalar RSUExampleScenario.node[33].appl 	NumberofON 	0.64864864864865
scalar RSUExampleScenario.node[33].appl 	NumberofFN 	0.24324324324324
scalar RSUExampleScenario.node[33].veinsmobility 	startTime 	79.6
scalar RSUExampleScenario.node[33].veinsmobility 	totalTime 	370.4
scalar RSUExampleScenario.node[33].veinsmobility 	stopTime 	450
scalar RSUExampleScenario.node[33].veinsmobility 	minSpeed 	0
scalar RSUExampleScenario.node[33].veinsmobility 	maxSpeed 	13.999864487483
scalar RSUExampleScenario.node[33].veinsmobility 	totalDistance 	1999.5437919809
scalar RSUExampleScenario.node[33].veinsmobility 	totalCO2Emission 	629.09973376345
scalar RSUExampleScenario.node[34].appl 	meanClusterNodes 	4.25
scalar RSUExampleScenario.node[34].appl 	meanClusterHeadUtility 	8.7593413752975
scalar RSUExampleScenario.node[34].appl 	NumberofCH 	0.10810810810811
scalar RSUExampleScenario.node[34].appl 	NumberofON 	0.64864864864865
scalar RSUExampleScenario.node[34].appl 	NumberofFN 	0.24324324324324
scalar RSUExampleScenario.node[34].veinsmobility 	startTime 	82
scalar RSUExampleScenario.node[34].veinsmobility 	totalTime 	368
scalar RSUExampleScenario.node[34].veinsmobility 	stopTime 	450
scalar RSUExampleScenario.node[34].veinsmobility 	minSpeed 	0
scalar RSUExampleScenario.node[34].veinsmobility 	maxSpeed 	13.999668889779
scalar RSUExampleScenario.node[34].veinsmobility 	totalDistance 	1966.0311553214
scalar RSUExampleScenario.node[34].veinsmobility 	totalCO2Emission 	620.93269409508
scalar RSUExampleScenario.node[35].appl 	meanClusterNodes 	0.5
scalar RSUExampleScenario.node[35].appl 	meanClusterHeadUtility 	16.436314206916
scalar RSUExampleScenario.node[35].appl 	NumberofCH 	0.054054054054054
scalar RSUExampleScenario.node[35].appl 	NumberofON 	0.78378378378378
scalar RSUExampleScenario.node[35].appl 	NumberofFN 	0.16216216216216
scalar RSUExampleScenario.node[35].veinsmobility 	startTime 	84.4
scalar RSUExampleScenario.node[35].veinsmobility 	totalTime 	365.6
scalar RSUExampleScenario.node[35].veinsmobility 	stopTime 	450
scalar RSUExampleScenario.node[35].veinsmobility 	minSpeed 	0
scalar RSUExampleScenario.node[35].veinsmobility 	maxSpeed 	13.999925867685
scalar RSUExampleScenario.node[35].veinsmobility 	totalDistance 	1929.7444630691
scalar RSUExampleScenario.node[35].veinsmobility 	totalCO2Emission 	614.24384243772
scalar RSUExampleScenario.node[36].appl 	meanClusterNodes 	11
scalar RSUExampleScenario.node[36].appl 	meanClusterHeadUtility 	17.145991128779
scalar RSUExampleScenario.node[36].appl 	NumberofCH 	0.054054054054054
scalar RSUExampleScenario.node[36].appl 	NumberofON 	0.37837837837838
scalar RSUExampleScenario.node[36].appl 	NumberofFN 	0.56756756756757
scalar RSUExampleScenario.node[36].veinsmobility 	startTime 	86.8
scalar RSUExampleScenario.node[36].veinsmobility 	totalTime 	363.2
scalar RSUExampleScenario.node[36].veinsmobility 	stopTime 	450
scalar RSUExampleScenario.node[36].veinsmobility 	minSpeed 	0
scalar RSUExampleScenario.node[36].veinsmobility 	maxSpeed 	13.999489601797
scalar RSUExampleScenario.node[36].veinsmobility 	totalDistance 	1897.4196759405
scalar RSUExampleScenario.node[36].veinsmobility 	totalCO2Emission 	607.97487065669
scalar RSUExampleScenario.node[37].appl 	meanClusterNodes 	5.75
scalar RSUExampleScenario.node[37].appl 	meanClusterHeadUtility 	8.6406950617475
scalar RSUExampleScenario.node[37].appl 	NumberofCH 	0.10810810810811
scalar RSUExampleScenario.node[37].appl 	NumberofON 	0.67567567567568
scalar RSUExampleScenario.node[37].appl 	NumberofFN 	0.21621621621622
scalar RSUExampleScenario.node[37].veinsmobility 	startTime 	89.2
scalar RSUExampleScenario.node[37].veinsmobility 	totalTime 	360.8
scalar RSUExampleScenario.node[37].veinsmobility 	stopTime 	450
scalar RSUExampleScenario.node[37].veinsmobility 	minSpeed 	0
scalar RSUExampleScenario.node[37].veinsmobility 	maxSpeed 	13.999999940584
scalar RSUExampleScenario.node[37].veinsmobility 	totalDistance 	1863.8856565932
scalar RSUExampleScenario.node[37].veinsmobility 	totalCO2Emission 	604.66440285314
scalar RSUExampleScenario.node[38].appl 	meanClusterNodes 	3.25
scalar RSUExampleScenario.node[38].appl 	meanClusterHeadUtility 	8.5279233720496
scalar RSUExampleScenario.node[38].appl 	NumberofCH 	0.10810810810811
scalar RSUExampleScenario.node[38].appl 	NumberofON 	0.7027027027027
scalar RSUExampleScenario.node[38].appl 	NumberofFN 	0.18918918918919
scalar RSUExampleScenario.node[38].veinsmobility 	startTime 	91.6
scalar RSUExampleScenario.node[38].veinsmobility 	totalTime 	358.4
scalar RSUExampleScenario.node[38].veinsmobility 	stopTime 	450
scalar RSUExampleScenario.node[38].veinsmobility 	minSpeed 	0
scalar RSUExampleScenario.node[38].veinsmobility 	maxSpeed 	13.99978674683
scalar RSUExampleScenario.node[38].veinsmobility 	totalDistance 	1832.0811422144
scalar RSUExampleScenario.node[38].veinsmobility 	totalCO2Emission 	600.06132076298
scalar RSUExampleScenario.node[39].appl 	meanClusterNodes 	4.75
scalar RSUExampleScenario.node[39].appl 	meanClusterHeadUtility 	8.3052224389695
scalar RSUExampleScenario.node[39].appl 	NumberofCH 	0.10810810810811
scalar RSUExampleScenario.node[39].appl 	NumberofON 	0.32432432432432
scalar RSUExampleScenario.node[39].appl 	NumberofFN 	0.56756756756757
scalar RSUExampleScenario.node[39].veinsmobility 	startTime 	94
scalar RSUExampleScenario.node[39].veinsmobility 	totalTime 	356
scalar RSUExampleScenario.node[39].veinsmobility 	stopTime 	450
scalar RSUExampleScenario.node[39].veinsmobility 	minSpeed 	0
scalar RSUExampleScenario.node[39].veinsmobility 	maxSpeed 	13.99970266328
scalar RSUExampleScenario.node[39].veinsmobility 	totalDistance 	1797.3244455215
scalar RSUExampleScenario.node[39].veinsmobility 	totalCO2Emission 	593.63257375942
scalar RSUExampleScenario.node[4].appl 	meanClusterNodes 	5.6666666666667
scalar RSUExampleScenario.node[4].appl 	meanClusterHeadUtility 	11.776612961828
scalar RSUExampleScenario.node[4].appl 	NumberofCH 	0.081081081081081
scalar RSUExampleScenario.node[4].appl 	NumberofON 	0.54054054054054
scalar RSUExampleScenario.node[4].appl 	NumberofFN 	0.37837837837838
scalar RSUExampleScenario.node[4].veinsmobility 	startTime 	9.7
scalar RSUExampleScenario.node[4].veinsmobility 	totalTime 	440.3
scalar RSUExampleScenario.node[4].veinsmobility 	stopTime 	450
scalar RSUExampleScenario.node[4].veinsmobility 	minSpeed 	0
scalar RSUExampleScenario.node[4].veinsmobility 	maxSpeed 	13.999964473923
scalar RSUExampleScenario.node[4].veinsmobility 	totalDistance 	2949.8487517535
scalar RSUExampleScenario.node[4].veinsmobility 	totalCO2Emission 	794.17362840997
scalar RSUExampleScenario.node[40].appl 	meanClusterNodes 	5.5
scalar RSUExampleScenario.node[40].appl 	meanClusterHeadUtility 	8.7013214153994
scalar RSUExampleScenario.node[40].appl 	NumberofCH 	0.10810810810811
scalar RSUExampleScenario.node[40].appl 	NumberofON 	0.59459459459459
scalar RSUExampleScenario.node[40].appl 	NumberofFN 	0.2972972972973
scalar RSUExampleScenario.node[40].veinsmobility 	startTime 	96.5
scalar RSUExampleScenario.node[40].veinsmobility 	totalTime 	353.5
scalar RSUExampleScenario.node[40].veinsmobility 	stopTime 	450
scalar RSUExampleScenario.node[40].veinsmobility 	minSpeed 	0
scalar RSUExampleScenario.node[40].veinsmobility 	maxSpeed 	13.999828005906
scalar RSUExampleScenario.node[40].veinsmobility 	totalDistance 	1764.4752248183
scalar RSUExampleScenario.node[40].veinsmobility 	totalCO2Emission 	587.99225149284
scalar RSUExampleScenario.node[41].appl 	meanClusterNodes 	2.5
scalar RSUExampleScenario.node[41].appl 	meanClusterHeadUtility 	8.5318546707075
scalar RSUExampleScenario.node[41].appl 	NumberofCH 	0.10810810810811
scalar RSUExampleScenario.node[41].appl 	NumberofON 	0.78378378378378
scalar RSUExampleScenario.node[41].appl 	NumberofFN 	0.10810810810811
scalar RSUExampleScenario.node[41].veinsmobility 	startTime 	98.9
scalar RSUExampleScenario.node[41].veinsmobility 	totalTime 	351.1
scalar RSUExampleScenario.node[41].veinsmobility 	stopTime 	450
scalar RSUExampleScenario.node[41].veinsmobility 	minSpeed 	0
scalar RSUExampleScenario.node[41].veinsmobility 	maxSpeed 	13.999937234432
scalar RSUExampleScenario.node[41].veinsmobility 	totalDistance 	1731.7089290755
scalar RSUExampleScenario.node[41].veinsmobility 	totalCO2Emission 	583.40439533973
scalar RSUExampleScenario.node[42].appl 	meanClusterNodes 	5
scalar RSUExampleScenario.node[42].appl 	meanClusterHeadUtility 	8.5650660782728
scalar RSUExampleScenario.node[42].appl 	NumberofCH 	0.10810810810811
scalar RSUExampleScenario.node[42].appl 	NumberofON 	0.72972972972973
scalar RSUExampleScenario.node[42].appl 	NumberofFN 	0.16216216216216
scalar RSUExampleScenario.node[42].veinsmobility 	startTime 	101.3
scalar RSUExampleScenario.node[42].veinsmobility 	totalTime 	348.7
scalar RSUExampleScenario.node[42].veinsmobility 	stopTime 	450
scalar RSUExampleScenario.node[42].veinsmobility 	minSpeed 	0
scalar RSUExampleScenario.node[42].veinsmobility 	maxSpeed 	13.999954596935
scalar RSUExampleScenario.node[42].veinsmobility 	totalDistance 	1697.5388001967
scalar RSUExampleScenario.node[42].veinsmobility 	totalCO2Emission 	572.97068996903
scalar RSUExampleScenario.node[43].appl 	meanClusterNodes 	4.25
scalar RSUExampleScenario.node[43].appl 	meanClusterHeadUtility 	8.644354259698
scalar RSUExampleScenario.node[43].appl 	NumberofCH 	0.10810810810811
scalar RSUExampleScenario.node[43].appl 	NumberofON 	0.48648648648649
scalar RSUExampleScenario.node[43].appl 	NumberofFN 	0.40540540540541
scalar RSUExampleScenario.node[43].veinsmobility 	startTime 	103.7
scalar RSUExampleScenario.node[43].veinsmobility 	totalTime 	346.3
scalar RSUExampleScenario.node[43].veinsmobility 	stopTime 	450
scalar RSUExampleScenario.node[43].veinsmobility 	minSpeed 	0
scalar RSUExampleScenario.node[43].veinsmobility 	maxSpeed 	13.999857253646
scalar RSUExampleScenario.node[43].veinsmobility 	totalDistance 	1662.8910590709
scalar RSUExampleScenario.node[43].veinsmobility 	totalCO2Emission 	569.88753162237
scalar RSUExampleScenario.node[44].appl 	meanClusterNodes 	2
scalar RSUExampleScenario.node[44].appl 	meanClusterHeadUtility 	19.244339489916
scalar RSUExampleScenario.node[44].appl 	NumberofCH 	0.054054054054054
scalar RSUExampleScenario.node[44].appl 	NumberofON 	0.56756756756757
scalar RSUExampleScenario.node[44].appl 	NumberofFN 	0.37837837837838
scalar RSUExampleScenario.node[44].veinsmobility 	startTime 	106.1
scalar RSUExampleScenario.node[44].veinsmobility 	totalTime 	343.9
scalar RSUExampleScenario.node[44].veinsmobility 	stopTime 	450
scalar RSUExampleScenario.node[44].veinsmobility 	minSpeed 	0
scalar RSUExampleScenario.node[44].veinsmobility 	maxSpeed 	13.999961029487
scalar RSUExampleScenario.node[44].veinsmobility 	totalDistance 	1627.2720119815
scalar RSUExampleScenario.node[44].veinsmobility 	totalCO2Emission 	562.55393588452
scalar RSUExampleScenario.node[45].appl 	meanClusterNodes 	2.25
scalar RSUExampleScenario.node[45].appl 	meanClusterHeadUtility 	8.3490439845462
scalar RSUExampleScenario.node[45].appl 	NumberofCH 	0.10810810810811
scalar RSUExampleScenario.node[45].appl 	NumberofON 	0.59459459459459
scalar RSUExampleScenario.node[45].appl 	NumberofFN 	0.2972972972973
scalar RSUExampleScenario.node[45].veinsmobility 	startTime 	108.5
scalar RSUExampleScenario.node[45].veinsmobility 	totalTime 	341.5
scalar RSUExampleScenario.node[45].veinsmobility 	stopTime 	450
scalar RSUExampleScenario.node[45].veinsmobility 	minSpeed 	0
scalar RSUExampleScenario.node[45].veinsmobility 	maxSpeed 	13.999763676452
scalar RSUExampleScenario.node[45].veinsmobility 	totalDistance 	1595.2932151727
scalar RSUExampleScenario.node[45].veinsmobility 	totalCO2Emission 	558.78357074247
scalar RSUExampleScenario.node[46].appl 	meanClusterNodes 	6
scalar RSUExampleScenario.node[46].appl 	meanClusterHeadUtility 	15.757765285385
scalar RSUExampleScenario.node[46].appl 	NumberofCH 	0.054054054054054
scalar RSUExampleScenario.node[46].appl 	NumberofON 	0.64864864864865
scalar RSUExampleScenario.node[46].appl 	NumberofFN 	0.2972972972973
scalar RSUExampleScenario.node[46].veinsmobility 	startTime 	110.9
scalar RSUExampleScenario.node[46].veinsmobility 	totalTime 	339.1
scalar RSUExampleScenario.node[46].veinsmobility 	stopTime 	450
scalar RSUExampleScenario.node[46].veinsmobility 	minSpeed 	0
scalar RSUExampleScenario.node[46].veinsmobility 	maxSpeed 	13.999729447842
scalar RSUExampleScenario.node[46].veinsmobility 	totalDistance 	1562.3823767716
scalar RSUExampleScenario.node[46].veinsmobility 	totalCO2Emission 	554.71246270808
scalar RSUExampleScenario.node[47].appl 	meanClusterNodes 	4.75
scalar RSUExampleScenario.node[47].appl 	meanClusterHeadUtility 	8.3994323902289
scalar RSUExampleScenario.node[47].appl 	NumberofCH 	0.10810810810811
scalar RSUExampleScenario.node[47].appl 	NumberofON 	0.43243243243243
scalar RSUExampleScenario.node[47].appl 	NumberofFN 	0.45945945945946
scalar RSUExampleScenario.node[47].veinsmobility 	startTime 	113.3
scalar RSUExampleScenario.node[47].veinsmobility 	totalTime 	336.7
scalar RSUExampleScenario.node[47].veinsmobility 	stopTime 	450
scalar RSUExampleScenario.node[47].veinsmobility 	minSpeed 	0
scalar RSUExampleScenario.node[47].veinsmobility 	maxSpeed 	13.999977722855
scalar RSUExampleScenario.node[47].veinsmobility 	totalDistance 	1528.223786026
scalar RSUExampleScenario.node[47].veinsmobility 	totalCO2Emission 	545.90436925552
scalar RSUExampleScenario.node[48].appl 	meanClusterNodes 	2.6666666666667
scalar RSUExampleScenario.node[48].appl 	meanClusterHeadUtility 	10.8962219534
scalar RSUExampleScenario.node[48].appl 	NumberofCH 	0.081081081081081
scalar RSUExampleScenario.node[48].appl 	NumberofON 	0.75675675675676
scalar RSUExampleScenario.node[48].appl 	NumberofFN 	0.16216216216216
scalar RSUExampleScenario.node[48].veinsmobility 	startTime 	115.7
scalar RSUExampleScenario.node[48].veinsmobility 	totalTime 	334.3
scalar RSUExampleScenario.node[48].veinsmobility 	stopTime 	450
scalar RSUExampleScenario.node[48].veinsmobility 	minSpeed 	0
scalar RSUExampleScenario.node[48].veinsmobility 	maxSpeed 	13.999919364245
scalar RSUExampleScenario.node[48].veinsmobility 	totalDistance 	1495.5853691008
scalar RSUExampleScenario.node[48].veinsmobility 	totalCO2Emission 	541.91119578103
scalar RSUExampleScenario.node[49].appl 	meanClusterNodes 	3
scalar RSUExampleScenario.node[49].appl 	meanClusterHeadUtility 	8.7009531149382
scalar RSUExampleScenario.node[49].appl 	NumberofCH 	0.10810810810811
scalar RSUExampleScenario.node[49].appl 	NumberofON 	0.2972972972973
scalar RSUExampleScenario.node[49].appl 	NumberofFN 	0.59459459459459
scalar RSUExampleScenario.node[49].veinsmobility 	startTime 	118.1
scalar RSUExampleScenario.node[49].veinsmobility 	totalTime 	331.9
scalar RSUExampleScenario.node[49].veinsmobility 	stopTime 	450
scalar RSUExampleScenario.node[49].veinsmobility 	minSpeed 	0
scalar RSUExampleScenario.node[49].veinsmobility 	maxSpeed 	13.999595467127
scalar RSUExampleScenario.node[49].veinsmobility 	totalDistance 	1461.9445781223
scalar RSUExampleScenario.node[49].veinsmobility 	totalCO2Emission 	536.68995952029
scalar RSUExampleScenario.node[5].appl 	meanClusterNodes 	3.5
scalar RSUExampleScenario.node[5].appl 	meanClusterHeadUtility 	8.717913658357
scalar RSUExampleScenario.node[5].appl 	NumberofCH 	0.10810810810811
scalar RSUExampleScenario.node[5].appl 	NumberofON 	0.51351351351351
scalar RSUExampleScenario.node[5].appl 	NumberofFN 	0.37837837837838
scalar RSUExampleScenario.node[5].veinsmobility 	startTime 	12.1
scalar RSUExampleScenario.node[5].veinsmobility 	totalTime 	437.9
scalar RSUExampleScenario.node[5].veinsmobility 	stopTime 	450
scalar RSUExampleScenario.node[5].veinsmobility 	minSpeed 	0
scalar RSUExampleScenario.node[5].veinsmobility 	maxSpeed 	13.99998993417
scalar RSUExampleScenario.node[5].veinsmobility 	totalDistance 	2913.8424621096
scalar RSUExampleScenario.node[5].veinsmobility 	totalCO2Emission 	785.36578547327
scalar RSUExampleScenario.node[50].appl 	meanClusterNodes 	3.5
scalar RSUExampleScenario.node[50].appl 	meanClusterHeadUtility 	8.5425880869976
scalar RSUExampleScenario.node[50].appl 	NumberofCH 	0.10810810810811
scalar RSUExampleScenario.node[50].appl 	NumberofON 	0.62162162162162
scalar RSUExampleScenario.node[50].appl 	NumberofFN 	0.27027027027027
scalar RSUExampleScenario.node[50].veinsmobility 	startTime 	120.6
scalar RSUExampleScenario.node[50].veinsmobility 	totalTime 	329.4
scalar RSUExampleScenario.node[50].veinsmobility 	stopTime 	450
scalar RSUExampleScenario.node[50].veinsmobility 	minSpeed 	0
scalar RSUExampleScenario.node[50].veinsmobility 	maxSpeed 	13.999827417557
scalar RSUExampleScenario.node[50].veinsmobility 	totalDistance 	1428.1224642981
scalar RSUExampleScenario.node[50].veinsmobility 	totalCO2Emission 	529.41638506708
scalar RSUExampleScenario.node[51].appl 	meanClusterNodes 	13.5
scalar RSUExampleScenario.node[51].appl 	meanClusterHeadUtility 	16.969528400113
scalar RSUExampleScenario.node[51].appl 	NumberofCH 	0.054054054054054
scalar RSUExampleScenario.node[51].appl 	NumberofON 	0.37837837837838
scalar RSUExampleScenario.node[51].appl 	NumberofFN 	0.56756756756757
scalar RSUExampleScenario.node[51].veinsmobility 	startTime 	123
scalar RSUExampleScenario.node[51].veinsmobility 	totalTime 	327
scalar RSUExampleScenario.node[51].veinsmobility 	stopTime 	450
scalar RSUExampleScenario.node[51].veinsmobility 	minSpeed 	0
scalar RSUExampleScenario.node[51].veinsmobility 	maxSpeed 	13.999960234135
scalar RSUExampleScenario.node[51].veinsmobility 	totalDistance 	1395.0833586944
scalar RSUExampleScenario.node[51].veinsmobility 	totalCO2Emission 	524.05871756782
scalar RSUExampleScenario.node[52].appl 	meanClusterNodes 	2.75
scalar RSUExampleScenario.node[52].appl 	meanClusterHeadUtility 	8.850258684704
scalar RSUExampleScenario.node[52].appl 	NumberofCH 	0.10810810810811
scalar RSUExampleScenario.node[52].appl 	NumberofON 	0.7027027027027
scalar RSUExampleScenario.node[52].appl 	NumberofFN 	0.18918918918919
scalar RSUExampleScenario.node[52].veinsmobility 	startTime 	125.4
scalar RSUExampleScenario.node[52].veinsmobility 	totalTime 	324.6
scalar RSUExampleScenario.node[52].veinsmobility 	stopTime 	450
scalar RSUExampleScenario.node[52].veinsmobility 	minSpeed 	0
scalar RSUExampleScenario.node[52].veinsmobility 	maxSpeed 	13.999999343124
scalar RSUExampleScenario.node[52].veinsmobility 	totalDistance 	1361.6094372295
scalar RSUExampleScenario.node[52].veinsmobility 	totalCO2Emission 	519.33937357665
scalar RSUExampleScenario.node[53].appl 	meanClusterNodes 	7.5
scalar RSUExampleScenario.node[53].appl 	meanClusterHeadUtility 	8.5298651142987
scalar RSUExampleScenario.node[53].appl 	NumberofCH 	0.10810810810811
scalar RSUExampleScenario.node[53].appl 	NumberofON 	0.43243243243243
scalar RSUExampleScenario.node[53].appl 	NumberofFN 	0.45945945945946
scalar RSUExampleScenario.node[53].veinsmobility 	startTime 	127.8
scalar RSUExampleScenario.node[53].veinsmobility 	totalTime 	322.2
scalar RSUExampleScenario.node[53].veinsmobility 	stopTime 	450
scalar RSUExampleScenario.node[53].veinsmobility 	minSpeed 	0
scalar RSUExampleScenario.node[53].veinsmobility 	maxSpeed 	13.999920313146
scalar RSUExampleScenario.node[53].veinsmobility 	totalDistance 	1327.649020525
scalar RSUExampleScenario.node[53].veinsmobility 	totalCO2Emission 	515.4067945532
scalar RSUExampleScenario.node[54].appl 	meanClusterNodes 	1
scalar RSUExampleScenario.node[54].appl 	meanClusterHeadUtility 	17.031949349941
scalar RSUExampleScenario.node[54].appl 	NumberofCH 	0.054054054054054
scalar RSUExampleScenario.node[54].appl 	NumberofON 	0.56756756756757
scalar RSUExampleScenario.node[54].appl 	NumberofFN 	0.37837837837838
scalar RSUExampleScenario.node[54].veinsmobility 	startTime 	130.2
scalar RSUExampleScenario.node[54].veinsmobility 	totalTime 	319.8
scalar RSUExampleScenario.node[54].veinsmobility 	stopTime 	450
scalar RSUExampleScenario.node[54].veinsmobility 	minSpeed 	0
scalar RSUExampleScenario.node[54].veinsmobility 	maxSpeed 	13.999998901817
scalar RSUExampleScenario.node[54].veinsmobility 	totalDistance 	1291.0131929742
scalar RSUExampleScenario.node[54].veinsmobility 	totalCO2Emission 	509.77034576388
scalar RSUExampleScenario.node[55].appl 	meanClusterNodes 	5.5
scalar RSUExampleScenario.node[55].appl 	meanClusterHeadUtility 	16.487458502209
scalar RSUExampleScenario.node[55].appl 	NumberofCH 	0.054054054054054
scalar RSUExampleScenario.node[55].appl 	NumberofON 	0.67567567567568
scalar RSUExampleScenario.node[55].appl 	NumberofFN 	0.27027027027027
scalar RSUExampleScenario.node[55].veinsmobility 	startTime 	132.6
scalar RSUExampleScenario.node[55].veinsmobility 	totalTime 	317.4
scalar RSUExampleScenario.node[55].veinsmobility 	stopTime 	450
scalar RSUExampleScenario.node[55].veinsmobility 	minSpeed 	0
scalar RSUExampleScenario.node[55].veinsmobility 	maxSpeed 	13.999599709639
scalar RSUExampleScenario.node[55].veinsmobility 	totalDistance 	1258.6161250535
scalar RSUExampleScenario.node[55].veinsmobility 	totalCO2Emission 	502.61292562002
scalar RSUExampleScenario.node[56].appl 	meanClusterNodes 	0
scalar RSUExampleScenario.node[56].appl 	meanClusterHeadUtility 	0
scalar RSUExampleScenario.node[56].appl 	NumberofCH 	0.10810810810811
scalar RSUExampleScenario.node[56].appl 	NumberofON 	0.10810810810811
scalar RSUExampleScenario.node[56].appl 	NumberofFN 	0.78378378378378
scalar RSUExampleScenario.node[56].veinsmobility 	startTime 	135
scalar RSUExampleScenario.node[56].veinsmobility 	totalTime 	315
scalar RSUExampleScenario.node[56].veinsmobility 	stopTime 	450
scalar RSUExampleScenario.node[56].veinsmobility 	minSpeed 	0
scalar RSUExampleScenario.node[56].veinsmobility 	maxSpeed 	13.999964351489
scalar RSUExampleScenario.node[56].veinsmobility 	totalDistance 	1224.4617166651
scalar RSUExampleScenario.node[56].veinsmobility 	totalCO2Emission 	497.4820081981
scalar RSUExampleScenario.node[57].appl 	meanClusterNodes 	4.5
scalar RSUExampleScenario.node[57].appl 	meanClusterHeadUtility 	8.443086339911
scalar RSUExampleScenario.node[57].appl 	NumberofCH 	0.10810810810811
scalar RSUExampleScenario.node[57].appl 	NumberofON 	0.59459459459459
scalar RSUExampleScenario.node[57].appl 	NumberofFN 	0.2972972972973
scalar RSUExampleScenario.node[57].veinsmobility 	startTime 	137.4
scalar RSUExampleScenario.node[57].veinsmobility 	totalTime 	312.6
scalar RSUExampleScenario.node[57].veinsmobility 	stopTime 	450
scalar RSUExampleScenario.node[57].veinsmobility 	minSpeed 	0
scalar RSUExampleScenario.node[57].veinsmobility 	maxSpeed 	13.999896622002
scalar RSUExampleScenario.node[57].veinsmobility 	totalDistance 	1193.0735663148
scalar RSUExampleScenario.node[57].veinsmobility 	totalCO2Emission 	491.08035249828
scalar RSUExampleScenario.node[58].appl 	meanClusterNodes 	4
scalar RSUExampleScenario.node[58].appl 	meanClusterHeadUtility 	8.0833811169834
scalar RSUExampleScenario.node[58].appl 	NumberofCH 	0.10810810810811
scalar RSUExampleScenario.node[58].appl 	NumberofON 	0.64864864864865
scalar RSUExampleScenario.node[58].appl 	NumberofFN 	0.24324324324324
scalar RSUExampleScenario.node[58].veinsmobility 	startTime 	139.8
scalar RSUExampleScenario.node[58].veinsmobility 	totalTime 	310.2
scalar RSUExampleScenario.node[58].veinsmobility 	stopTime 	450
scalar RSUExampleScenario.node[58].veinsmobility 	minSpeed 	0
scalar RSUExampleScenario.node[58].veinsmobility 	maxSpeed 	13.999940323492
scalar RSUExampleScenario.node[58].veinsmobility 	totalDistance 	1157.7862147259
scalar RSUExampleScenario.node[58].veinsmobility 	totalCO2Emission 	485.45634343207
scalar RSUExampleScenario.node[59].appl 	meanClusterNodes 	4
scalar RSUExampleScenario.node[59].appl 	meanClusterHeadUtility 	8.9581221591306
scalar RSUExampleScenario.node[59].appl 	NumberofCH 	0.10810810810811
scalar RSUExampleScenario.node[59].appl 	NumberofON 	0.51351351351351
scalar RSUExampleScenario.node[59].appl 	NumberofFN 	0.37837837837838
scalar RSUExampleScenario.node[59].veinsmobility 	startTime 	142.2
scalar RSUExampleScenario.node[59].veinsmobility 	totalTime 	307.8
scalar RSUExampleScenario.node[59].veinsmobility 	stopTime 	450
scalar RSUExampleScenario.node[59].veinsmobility 	minSpeed 	0
scalar RSUExampleScenario.node[59].veinsmobility 	maxSpeed 	13.999823854319
scalar RSUExampleScenario.node[59].veinsmobility 	totalDistance 	1126.4656983514
scalar RSUExampleScenario.node[59].veinsmobility 	totalCO2Emission 	479.88466162045
scalar RSUExampleScenario.node[6].appl 	meanClusterNodes 	7.5
scalar RSUExampleScenario.node[6].appl 	meanClusterHeadUtility 	18.75350362558
scalar RSUExampleScenario.node[6].appl 	NumberofCH 	0.054054054054054
scalar RSUExampleScenario.node[6].appl 	NumberofON 	0.27027027027027
scalar RSUExampleScenario.node[6].appl 	NumberofFN 	0.67567567567568
scalar RSUExampleScenario.node[6].veinsmobility 	startTime 	14.5
scalar RSUExampleScenario.node[6].veinsmobility 	totalTime 	435.5
scalar RSUExampleScenario.node[6].veinsmobility 	stopTime 	450
scalar RSUExampleScenario.node[6].veinsmobility 	minSpeed 	0
scalar RSUExampleScenario.node[6].veinsmobility 	maxSpeed 	13.999996736657
scalar RSUExampleScenario.node[6].veinsmobility 	totalDistance 	2905.6785979543
scalar RSUExampleScenario.node[6].veinsmobility 	totalCO2Emission 	777.15742114738
scalar RSUExampleScenario.node[60].appl 	meanClusterNodes 	7.5
scalar RSUExampleScenario.node[60].appl 	meanClusterHeadUtility 	8.0119838952288
scalar RSUExampleScenario.node[60].appl 	NumberofCH 	0.10810810810811
scalar RSUExampleScenario.node[60].appl 	NumberofON 	0.62162162162162
scalar RSUExampleScenario.node[60].appl 	NumberofFN 	0.27027027027027
scalar RSUExampleScenario.node[60].veinsmobility 	startTime 	144.7
scalar RSUExampleScenario.node[60].veinsmobility 	totalTime 	305.3
scalar RSUExampleScenario.node[60].veinsmobility 	stopTime 	450
scalar RSUExampleScenario.node[60].veinsmobility 	minSpeed 	0
scalar RSUExampleScenario.node[60].veinsmobility 	maxSpeed 	13.999894188668
scalar RSUExampleScenario.node[60].veinsmobility 	totalDistance 	1090.7731222895
scalar RSUExampleScenario.node[60].veinsmobility 	totalCO2Emission 	474.05063161555
scalar RSUExampleScenario.node[61].appl 	meanClusterNodes 	1.75
scalar RSUExampleScenario.node[61].appl 	meanClusterHeadUtility 	7.8131785852055
scalar RSUExampleScenario.node[61].appl 	NumberofCH 	0.10810810810811
scalar RSUExampleScenario.node[61].appl 	NumberofON 	0.32432432432432
scalar RSUExampleScenario.node[61].appl 	NumberofFN 	0.56756756756757
scalar RSUExampleScenario.node[61].veinsmobility 	startTime 	147.1
scalar RSUExampleScenario.node[61].veinsmobility 	totalTime 	302.9
scalar RSUExampleScenario.node[61].veinsmobility 	stopTime 	450
scalar RSUExampleScenario.node[61].veinsmobility 	minSpeed 	0
scalar RSUExampleScenario.node[61].veinsmobility 	maxSpeed 	13.99992382278
scalar RSUExampleScenario.node[61].veinsmobility 	totalDistance 	1057.4883440189
scalar RSUExampleScenario.node[61].veinsmobility 	totalCO2Emission 	467.58898847679
scalar RSUExampleScenario.node[62].appl 	meanClusterNodes 	5.4
scalar RSUExampleScenario.node[62].appl 	meanClusterHeadUtility 	7.0091586399719
scalar RSUExampleScenario.node[62].appl 	NumberofCH 	0.13513513513514
scalar RSUExampleScenario.node[62].appl 	NumberofON 	0.56756756756757
scalar RSUExampleScenario.node[62].appl 	NumberofFN 	0.2972972972973
scalar RSUExampleScenario.node[62].veinsmobility 	startTime 	149.5
scalar RSUExampleScenario.node[62].veinsmobility 	totalTime 	300.5
scalar RSUExampleScenario.node[62].veinsmobility 	stopTime 	450
scalar RSUExampleScenario.node[62].veinsmobility 	minSpeed 	0
scalar RSUExampleScenario.node[62].veinsmobility 	maxSpeed 	13.999884460932
scalar RSUExampleScenario.node[62].veinsmobility 	totalDistance 	1024.2558345183
scalar RSUExampleScenario.node[62].veinsmobility 	totalCO2Emission 	465.85216021743
scalar RSUExampleScenario.node[63].appl 	meanClusterNodes 	3.75
scalar RSUExampleScenario.node[63].appl 	meanClusterHeadUtility 	8.2544420803367
scalar RSUExampleScenario.node[63].appl 	NumberofCH 	0.10810810810811
scalar RSUExampleScenario.node[63].appl 	NumberofON 	0.62162162162162
scalar RSUExampleScenario.node[63].appl 	NumberofFN 	0.27027027027027
scalar RSUExampleScenario.node[63].veinsmobility 	startTime 	151.9
scalar RSUExampleScenario.node[63].veinsmobility 	totalTime 	298.1
scalar RSUExampleScenario.node[63].veinsmobility 	stopTime 	450
scalar RSUExampleScenario.node[63].veinsmobility 	minSpeed 	0
scalar RSUExampleScenario.node[63].veinsmobility 	maxSpeed 	13.999927434083
scalar RSUExampleScenario.node[63].veinsmobility 	totalDistance 	984.91377131377
scalar RSUExampleScenario.node[63].veinsmobility 	totalCO2Emission 	449.27018942373
scalar RSUExampleScenario.node[64].appl 	meanClusterNodes 	6
scalar RSUExampleScenario.node[64].appl 	meanClusterHeadUtility 	18.959622475637
scalar RSUExampleScenario.node[64].appl 	NumberofCH 	0.054054054054054
scalar RSUExampleScenario.node[64].appl 	NumberofON 	0.54054054054054
scalar RSUExampleScenario.node[64].appl 	NumberofFN 	0.40540540540541
scalar RSUExampleScenario.node[64].veinsmobility 	startTime 	154.3
scalar RSUExampleScenario.node[64].veinsmobility 	totalTime 	295.7
scalar RSUExampleScenario.node[64].veinsmobility 	stopTime 	450
scalar RSUExampleScenario.node[64].veinsmobility 	minSpeed 	0
scalar RSUExampleScenario.node[64].veinsmobility 	maxSpeed 	13.999114806037
scalar RSUExampleScenario.node[64].veinsmobility 	totalDistance 	953.97424307134
scalar RSUExampleScenario.node[64].veinsmobility 	totalCO2Emission 	436.03292703039
scalar RSUExampleScenario.node[65].appl 	meanClusterNodes 	6.5
scalar RSUExampleScenario.node[65].appl 	meanClusterHeadUtility 	9.972392780748
scalar RSUExampleScenario.node[65].appl 	NumberofCH 	0.10810810810811
scalar RSUExampleScenario.node[65].appl 	NumberofON 	0.27027027027027
scalar RSUExampleScenario.node[65].appl 	NumberofFN 	0.62162162162162
scalar RSUExampleScenario.node[65].veinsmobility 	startTime 	156.7
scalar RSUExampleScenario.node[65].veinsmobility 	totalTime 	293.3
scalar RSUExampleScenario.node[65].veinsmobility 	stopTime 	450
scalar RSUExampleScenario.node[65].veinsmobility 	minSpeed 	0
scalar RSUExampleScenario.node[65].veinsmobility 	maxSpeed 	13.999743006628
scalar RSUExampleScenario.node[65].veinsmobility 	totalDistance 	940.35920470722
scalar RSUExampleScenario.node[65].veinsmobility 	totalCO2Emission 	428.21279946384
scalar RSUExampleScenario.node[66].appl 	meanClusterNodes 	2.75
scalar RSUExampleScenario.node[66].appl 	meanClusterHeadUtility 	9.253303124288
scalar RSUExampleScenario.node[66].appl 	NumberofCH 	0.10810810810811
scalar RSUExampleScenario.node[66].appl 	NumberofON 	0.59459459459459
scalar RSUExampleScenario.node[66].appl 	NumberofFN 	0.2972972972973
scalar RSUExampleScenario.node[66].veinsmobility 	startTime 	159.1
scalar RSUExampleScenario.node[66].veinsmobility 	totalTime 	290.9
scalar RSUExampleScenario.node[66].veinsmobility 	stopTime 	450
scalar RSUExampleScenario.node[66].veinsmobility 	minSpeed 	0
scalar RSUExampleScenario.node[66].veinsmobility 	maxSpeed 	13.999146739789
scalar RSUExampleScenario.node[66].veinsmobility 	totalDistance 	927.90113683357
scalar RSUExampleScenario.node[66].veinsmobility 	totalCO2Emission 	424.17290668505
scalar RSUExampleScenario.node[67].appl 	meanClusterNodes 	1
scalar RSUExampleScenario.node[67].appl 	meanClusterHeadUtility 	7.8374693629189
scalar RSUExampleScenario.node[67].appl 	NumberofCH 	0.10810810810811
scalar RSUExampleScenario.node[67].appl 	NumberofON 	0.45945945945946
scalar RSUExampleScenario.node[67].appl 	NumberofFN 	0.43243243243243
scalar RSUExampleScenario.node[67].veinsmobility 	startTime 	161.5
scalar RSUExampleScenario.node[67].veinsmobility 	totalTime 	288.5
scalar RSUExampleScenario.node[67].veinsmobility 	stopTime 	450
scalar RSUExampleScenario.node[67].veinsmobility 	minSpeed 	0
scalar RSUExampleScenario.node[67].veinsmobility 	maxSpeed 	13.999686647581
scalar RSUExampleScenario.node[67].veinsmobility 	totalDistance 	913.14262286587
scalar RSUExampleScenario.node[67].veinsmobility 	totalCO2Emission 	422.01163331579
scalar RSUExampleScenario.node[68].appl 	meanClusterNodes 	3
scalar RSUExampleScenario.node[68].appl 	meanClusterHeadUtility 	8.5097853640995
scalar RSUExampleScenario.node[68].appl 	NumberofCH 	0.10810810810811
scalar RSUExampleScenario.node[68].appl 	NumberofON 	0.40540540540541
scalar RSUExampleScenario.node[68].appl 	NumberofFN 	0.48648648648649
scalar RSUExampleScenario.node[68].veinsmobility 	startTime 	163.9
scalar RSUExampleScenario.node[68].veinsmobility 	totalTime 	286.1
scalar RSUExampleScenario.node[68].veinsmobility 	stopTime 	450
scalar RSUExampleScenario.node[68].veinsmobility 	minSpeed 	0
scalar RSUExampleScenario.node[68].veinsmobility 	maxSpeed 	13.998923603881
scalar RSUExampleScenario.node[68].veinsmobility 	totalDistance 	893.92133960161
scalar RSUExampleScenario.node[68].veinsmobility 	totalCO2Emission 	418.41541705315
scalar RSUExampleScenario.node[69].appl 	meanClusterNodes 	2.75
scalar RSUExampleScenario.node[69].appl 	meanClusterHeadUtility 	8.6733442707952
scalar RSUExampleScenario.node[69].appl 	NumberofCH 	0.10810810810811
scalar RSUExampleScenario.node[69].appl 	NumberofON 	0.64864864864865
scalar RSUExampleScenario.node[69].appl 	NumberofFN 	0.24324324324324
scalar RSUExampleScenario.node[69].veinsmobility 	startTime 	166.3
scalar RSUExampleScenario.node[69].veinsmobility 	totalTime 	283.7
scalar RSUExampleScenario.node[69].veinsmobility 	stopTime 	450
scalar RSUExampleScenario.node[69].veinsmobility 	minSpeed 	0
scalar RSUExampleScenario.node[69].veinsmobility 	maxSpeed 	13.999669818643
scalar RSUExampleScenario.node[69].veinsmobility 	totalDistance 	857.34115807175
scalar RSUExampleScenario.node[69].veinsmobility 	totalCO2Emission 	413.42246042821
scalar RSUExampleScenario.node[7].appl 	meanClusterNodes 	0.75
scalar RSUExampleScenario.node[7].appl 	meanClusterHeadUtility 	8.4388645060955
scalar RSUExampleScenario.node[7].appl 	NumberofCH 	0.10810810810811
scalar RSUExampleScenario.node[7].appl 	NumberofON 	0.56756756756757
scalar RSUExampleScenario.node[7].appl 	NumberofFN 	0.32432432432432
scalar RSUExampleScenario.node[7].veinsmobility 	startTime 	16.9
scalar RSUExampleScenario.node[7].veinsmobility 	totalTime 	433.1
scalar RSUExampleScenario.node[7].veinsmobility 	stopTime 	450
scalar RSUExampleScenario.node[7].veinsmobility 	minSpeed 	0
scalar RSUExampleScenario.node[7].veinsmobility 	maxSpeed 	13.999941511601
scalar RSUExampleScenario.node[7].veinsmobility 	totalDistance 	2885.2668164151
scalar RSUExampleScenario.node[7].veinsmobility 	totalCO2Emission 	773.89898554447
scalar RSUExampleScenario.node[70].appl 	meanClusterNodes 	1
scalar RSUExampleScenario.node[70].appl 	meanClusterHeadUtility 	15.93000129056
scalar RSUExampleScenario.node[70].appl 	NumberofCH 	0.054054054054054
scalar RSUExampleScenario.node[70].appl 	NumberofON 	0.67567567567568
scalar RSUExampleScenario.node[70].appl 	NumberofFN 	0.27027027027027
scalar RSUExampleScenario.node[70].veinsmobility 	startTime 	168.8
scalar RSUExampleScenario.node[70].veinsmobility 	totalTime 	281.2
scalar RSUExampleScenario.node[70].veinsmobility 	stopTime 	450
scalar RSUExampleScenario.node[70].veinsmobility 	minSpeed 	0
scalar RSUExampleScenario.node[70].veinsmobility 	maxSpeed 	13.999801156449
scalar RSUExampleScenario.node[70].veinsmobility 	totalDistance 	825.56007702785
scalar RSUExampleScenario.node[70].veinsmobility 	totalCO2Emission 	408.84385799794
scalar RSUExampleScenario.node[71].appl 	meanClusterNodes 	5
scalar RSUExampleScenario.node[71].appl 	meanClusterHeadUtility 	9.623638956354
scalar RSUExampleScenario.node[71].appl 	NumberofCH 	0.10810810810811
scalar RSUExampleScenario.node[71].appl 	NumberofON 	0.67567567567568
scalar RSUExampleScenario.node[71].appl 	NumberofFN 	0.21621621621622
scalar RSUExampleScenario.node[71].veinsmobility 	startTime 	171.2
scalar RSUExampleScenario.node[71].veinsmobility 	totalTime 	278.8
scalar RSUExampleScenario.node[71].veinsmobility 	stopTime 	450
scalar RSUExampleScenario.node[71].veinsmobility 	minSpeed 	0
scalar RSUExampleScenario.node[71].veinsmobility 	maxSpeed 	13.999961468403
scalar RSUExampleScenario.node[71].veinsmobility 	totalDistance 	790.77456037592
scalar RSUExampleScenario.node[71].veinsmobility 	totalCO2Emission 	401.56931305158
scalar RSUExampleScenario.node[72].appl 	meanClusterNodes 	3.1666666666667
scalar RSUExampleScenario.node[72].appl 	meanClusterHeadUtility 	6.1085165229659
scalar RSUExampleScenario.node[72].appl 	NumberofCH 	0.16216216216216
scalar RSUExampleScenario.node[72].appl 	NumberofON 	0.67567567567568
scalar RSUExampleScenario.node[72].appl 	NumberofFN 	0.16216216216216
scalar RSUExampleScenario.node[72].veinsmobility 	startTime 	173.6
scalar RSUExampleScenario.node[72].veinsmobility 	totalTime 	276.4
scalar RSUExampleScenario.node[72].veinsmobility 	stopTime 	450
scalar RSUExampleScenario.node[72].veinsmobility 	minSpeed 	0
scalar RSUExampleScenario.node[72].veinsmobility 	maxSpeed 	13.999898064756
scalar RSUExampleScenario.node[72].veinsmobility 	totalDistance 	758.21368196429
scalar RSUExampleScenario.node[72].veinsmobility 	totalCO2Emission 	395.3917827576
scalar RSUExampleScenario.node[73].appl 	meanClusterNodes 	4
scalar RSUExampleScenario.node[73].appl 	meanClusterHeadUtility 	8.3741897206321
scalar RSUExampleScenario.node[73].appl 	NumberofCH 	0.10810810810811
scalar RSUExampleScenario.node[73].appl 	NumberofON 	0.75675675675676
scalar RSUExampleScenario.node[73].appl 	NumberofFN 	0.13513513513514
scalar RSUExampleScenario.node[73].veinsmobility 	startTime 	176
scalar RSUExampleScenario.node[73].veinsmobility 	totalTime 	274
scalar RSUExampleScenario.node[73].veinsmobility 	stopTime 	450
scalar RSUExampleScenario.node[73].veinsmobility 	minSpeed 	0
scalar RSUExampleScenario.node[73].veinsmobility 	maxSpeed 	13.999456410501
scalar RSUExampleScenario.node[73].veinsmobility 	totalDistance 	724.65962652662
scalar RSUExampleScenario.node[73].veinsmobility 	totalCO2Emission 	389.56692120947
scalar RSUExampleScenario.node[74].appl 	meanClusterNodes 	5
scalar RSUExampleScenario.node[74].appl 	meanClusterHeadUtility 	8.1355709491866
scalar RSUExampleScenario.node[74].appl 	NumberofCH 	0.10810810810811
scalar RSUExampleScenario.node[74].appl 	NumberofON 	0.45945945945946
scalar RSUExampleScenario.node[74].appl 	NumberofFN 	0.43243243243243
scalar RSUExampleScenario.node[74].veinsmobility 	startTime 	178.4
scalar RSUExampleScenario.node[74].veinsmobility 	totalTime 	271.6
scalar RSUExampleScenario.node[74].veinsmobility 	stopTime 	450
scalar RSUExampleScenario.node[74].veinsmobility 	minSpeed 	0
scalar RSUExampleScenario.node[74].veinsmobility 	maxSpeed 	13.999642679431
scalar RSUExampleScenario.node[74].veinsmobility 	totalDistance 	691.26988126563
scalar RSUExampleScenario.node[74].veinsmobility 	totalCO2Emission 	384.57737415784
scalar RSUExampleScenario.node[75].appl 	meanClusterNodes 	3.6
scalar RSUExampleScenario.node[75].appl 	meanClusterHeadUtility 	7.2726803820125
scalar RSUExampleScenario.node[75].appl 	NumberofCH 	0.13513513513514
scalar RSUExampleScenario.node[75].appl 	NumberofON 	0.62162162162162
scalar RSUExampleScenario.node[75].appl 	NumberofFN 	0.24324324324324
scalar RSUExampleScenario.node[75].veinsmobility 	startTime 	180.8
scalar RSUExampleScenario.node[75].veinsmobility 	totalTime 	269.2
scalar RSUExampleScenario.node[75].veinsmobility 	stopTime 	450
scalar RSUExampleScenario.node[75].veinsmobility 	minSpeed 	0
scalar RSUExampleScenario.node[75].veinsmobility 	maxSpeed 	13.999273012611
scalar RSUExampleScenario.node[75].veinsmobility 	totalDistance 	657.46548354338
scalar RSUExampleScenario.node[75].veinsmobility 	totalCO2Emission 	378.15773583429
scalar RSUExampleScenario.node[76].appl 	meanClusterNodes 	5.75
scalar RSUExampleScenario.node[76].appl 	meanClusterHeadUtility 	8.7488380453653
scalar RSUExampleScenario.node[76].appl 	NumberofCH 	0.10810810810811
scalar RSUExampleScenario.node[76].appl 	NumberofON 	0.54054054054054
scalar RSUExampleScenario.node[76].appl 	NumberofFN 	0.35135135135135
scalar RSUExampleScenario.node[76].veinsmobility 	startTime 	183.2
scalar RSUExampleScenario.node[76].veinsmobility 	totalTime 	266.8
scalar RSUExampleScenario.node[76].veinsmobility 	stopTime 	450
scalar RSUExampleScenario.node[76].veinsmobility 	minSpeed 	0
scalar RSUExampleScenario.node[76].veinsmobility 	maxSpeed 	13.999636815432
scalar RSUExampleScenario.node[76].veinsmobility 	totalDistance 	623.92420190628
scalar RSUExampleScenario.node[76].veinsmobility 	totalCO2Emission 	373.30172941643
scalar RSUExampleScenario.node[77].appl 	meanClusterNodes 	0
scalar RSUExampleScenario.node[77].appl 	meanClusterHeadUtility 	0
scalar RSUExampleScenario.node[77].appl 	NumberofCH 	0.10810810810811
scalar RSUExampleScenario.node[77].appl 	NumberofON 	0
scalar RSUExampleScenario.node[77].appl 	NumberofFN 	0.89189189189189
scalar RSUExampleScenario.node[77].veinsmobility 	startTime 	185.6
scalar RSUExampleScenario.node[77].veinsmobility 	totalTime 	264.4
scalar RSUExampleScenario.node[77].veinsmobility 	stopTime 	450
scalar RSUExampleScenario.node[77].veinsmobility 	minSpeed 	0
scalar RSUExampleScenario.node[77].veinsmobility 	maxSpeed 	13.99956233331
scalar RSUExampleScenario.node[77].veinsmobility 	totalDistance 	591.0539799311
scalar RSUExampleScenario.node[77].veinsmobility 	totalCO2Emission 	367.96781401779
scalar RSUExampleScenario.node[78].appl 	meanClusterNodes 	2.5
scalar RSUExampleScenario.node[78].appl 	meanClusterHeadUtility 	6.0439820741264
scalar RSUExampleScenario.node[78].appl 	NumberofCH 	0.16216216216216
scalar RSUExampleScenario.node[78].appl 	NumberofON 	0.16216216216216
scalar RSUExampleScenario.node[78].appl 	NumberofFN 	0.67567567567568
scalar RSUExampleScenario.node[78].veinsmobility 	startTime 	188
scalar RSUExampleScenario.node[78].veinsmobility 	totalTime 	262
scalar RSUExampleScenario.node[78].veinsmobility 	stopTime 	450
scalar RSUExampleScenario.node[78].veinsmobility 	minSpeed 	0
scalar RSUExampleScenario.node[78].veinsmobility 	maxSpeed 	13.999262771166
scalar RSUExampleScenario.node[78].veinsmobility 	totalDistance 	557.42074782588
scalar RSUExampleScenario.node[78].veinsmobility 	totalCO2Emission 	363.05782791548
scalar RSUExampleScenario.node[79].appl 	meanClusterNodes 	2
scalar RSUExampleScenario.node[79].appl 	meanClusterHeadUtility 	5.7691811320707
scalar RSUExampleScenario.node[79].appl 	NumberofCH 	0.16216216216216
scalar RSUExampleScenario.node[79].appl 	NumberofON 	0.67567567567568
scalar RSUExampleScenario.node[79].appl 	NumberofFN 	0.16216216216216
scalar RSUExampleScenario.node[79].veinsmobility 	startTime 	190.4
scalar RSUExampleScenario.node[79].veinsmobility 	totalTime 	259.6
scalar RSUExampleScenario.node[79].veinsmobility 	stopTime 	450
scalar RSUExampleScenario.node[79].veinsmobility 	minSpeed 	0
scalar RSUExampleScenario.node[79].veinsmobility 	maxSpeed 	13.999984770906
scalar RSUExampleScenario.node[79].veinsmobility 	totalDistance 	524.98357926614
scalar RSUExampleScenario.node[79].veinsmobility 	totalCO2Emission 	356.49716402518
scalar RSUExampleScenario.node[8].appl 	meanClusterNodes 	3.5
scalar RSUExampleScenario.node[8].appl 	meanClusterHeadUtility 	18.442281252794
scalar RSUExampleScenario.node[8].appl 	NumberofCH 	0.054054054054054
scalar RSUExampleScenario.node[8].appl 	NumberofON 	0.72972972972973
scalar RSUExampleScenario.node[8].appl 	NumberofFN 	0.21621621621622
scalar RSUExampleScenario.node[8].veinsmobility 	startTime 	19.3
scalar RSUExampleScenario.node[8].veinsmobility 	totalTime 	430.7
scalar RSUExampleScenario.node[8].veinsmobility 	stopTime 	450
scalar RSUExampleScenario.node[8].veinsmobility 	minSpeed 	0
scalar RSUExampleScenario.node[8].veinsmobility 	maxSpeed 	13.999814163025
scalar RSUExampleScenario.node[8].veinsmobility 	totalDistance 	2862.4108026745
scalar RSUExampleScenario.node[8].veinsmobility 	totalCO2Emission 	770.70872671153
scalar RSUExampleScenario.node[80].appl 	meanClusterNodes 	5
scalar RSUExampleScenario.node[80].appl 	meanClusterHeadUtility 	16.994046454789
scalar RSUExampleScenario.node[80].appl 	NumberofCH 	0.054054054054054
scalar RSUExampleScenario.node[80].appl 	NumberofON 	0.78378378378378
scalar RSUExampleScenario.node[80].appl 	NumberofFN 	0.16216216216216
scalar RSUExampleScenario.node[80].veinsmobility 	startTime 	192.9
scalar RSUExampleScenario.node[80].veinsmobility 	totalTime 	257.1
scalar RSUExampleScenario.node[80].veinsmobility 	stopTime 	450
scalar RSUExampleScenario.node[80].veinsmobility 	minSpeed 	0
scalar RSUExampleScenario.node[80].veinsmobility 	maxSpeed 	13.999332517046
scalar RSUExampleScenario.node[80].veinsmobility 	totalDistance 	491.45962807277
scalar RSUExampleScenario.node[80].veinsmobility 	totalCO2Emission 	351.67547661133
scalar RSUExampleScenario.node[81].appl 	meanClusterNodes 	10.5
scalar RSUExampleScenario.node[81].appl 	meanClusterHeadUtility 	8.9056991408821
scalar RSUExampleScenario.node[81].appl 	NumberofCH 	0.10810810810811
scalar RSUExampleScenario.node[81].appl 	NumberofON 	0.48648648648649
scalar RSUExampleScenario.node[81].appl 	NumberofFN 	0.40540540540541
scalar RSUExampleScenario.node[81].veinsmobility 	startTime 	195.3
scalar RSUExampleScenario.node[81].veinsmobility 	totalTime 	254.7
scalar RSUExampleScenario.node[81].veinsmobility 	stopTime 	450
scalar RSUExampleScenario.node[81].veinsmobility 	minSpeed 	0
scalar RSUExampleScenario.node[81].veinsmobility 	maxSpeed 	13.999912534335
scalar RSUExampleScenario.node[81].veinsmobility 	totalDistance 	456.23818526692
scalar RSUExampleScenario.node[81].veinsmobility 	totalCO2Emission 	345.81007079269
scalar RSUExampleScenario.node[82].appl 	meanClusterNodes 	2.5
scalar RSUExampleScenario.node[82].appl 	meanClusterHeadUtility 	16.18081697704
scalar RSUExampleScenario.node[82].appl 	NumberofCH 	0.054054054054054
scalar RSUExampleScenario.node[82].appl 	NumberofON 	0.54054054054054
scalar RSUExampleScenario.node[82].appl 	NumberofFN 	0.40540540540541
scalar RSUExampleScenario.node[82].veinsmobility 	startTime 	197.7
scalar RSUExampleScenario.node[82].veinsmobility 	totalTime 	252.3
scalar RSUExampleScenario.node[82].veinsmobility 	stopTime 	450
scalar RSUExampleScenario.node[82].veinsmobility 	minSpeed 	0
scalar RSUExampleScenario.node[82].veinsmobility 	maxSpeed 	13.999222975094
scalar RSUExampleScenario.node[82].veinsmobility 	totalDistance 	423.38853494518
scalar RSUExampleScenario.node[82].veinsmobility 	totalCO2Emission 	340.32918306216
scalar RSUExampleScenario.node[83].appl 	meanClusterNodes 	6
scalar RSUExampleScenario.node[83].appl 	meanClusterHeadUtility 	8.6365230560672
scalar RSUExampleScenario.node[83].appl 	NumberofCH 	0.10810810810811
scalar RSUExampleScenario.node[83].appl 	NumberofON 	0.59459459459459
scalar RSUExampleScenario.node[83].appl 	NumberofFN 	0.2972972972973
scalar RSUExampleScenario.node[83].veinsmobility 	startTime 	200.1
scalar RSUExampleScenario.node[83].veinsmobility 	totalTime 	249.9
scalar RSUExampleScenario.node[83].veinsmobility 	stopTime 	450
scalar RSUExampleScenario.node[83].veinsmobility 	minSpeed 	0
scalar RSUExampleScenario.node[83].veinsmobility 	maxSpeed 	13.998476085537
scalar RSUExampleScenario.node[83].veinsmobility 	totalDistance 	389.65543646648
scalar RSUExampleScenario.node[83].veinsmobility 	totalCO2Emission 	334.73918689709
scalar RSUExampleScenario.node[84].appl 	meanClusterNodes 	6.75
scalar RSUExampleScenario.node[84].appl 	meanClusterHeadUtility 	8.8099266962785
scalar RSUExampleScenario.node[84].appl 	NumberofCH 	0.10810810810811
scalar RSUExampleScenario.node[84].appl 	NumberofON 	0.54054054054054
scalar RSUExampleScenario.node[84].appl 	NumberofFN 	0.35135135135135
scalar RSUExampleScenario.node[84].veinsmobility 	startTime 	202.5
scalar RSUExampleScenario.node[84].veinsmobility 	totalTime 	247.5
scalar RSUExampleScenario.node[84].veinsmobility 	stopTime 	450
scalar RSUExampleScenario.node[84].veinsmobility 	minSpeed 	0
scalar RSUExampleScenario.node[84].veinsmobility 	maxSpeed 	13.99839768253
scalar RSUExampleScenario.node[84].veinsmobility 	totalDistance 	356.46347469846
scalar RSUExampleScenario.node[84].veinsmobility 	totalCO2Emission 	329.68709897875
scalar RSUExampleScenario.node[85].appl 	meanClusterNodes 	4
scalar RSUExampleScenario.node[85].appl 	meanClusterHeadUtility 	17.8413427572
scalar RSUExampleScenario.node[85].appl 	NumberofCH 	0.054054054054054
scalar RSUExampleScenario.node[85].appl 	NumberofON 	0.27027027027027
scalar RSUExampleScenario.node[85].appl 	NumberofFN 	0.67567567567568
scalar RSUExampleScenario.node[85].veinsmobility 	startTime 	204.9
scalar RSUExampleScenario.node[85].veinsmobility 	totalTime 	245.1
scalar RSUExampleScenario.node[85].veinsmobility 	stopTime 	450
scalar RSUExampleScenario.node[85].veinsmobility 	minSpeed 	0
scalar RSUExampleScenario.node[85].veinsmobility 	maxSpeed 	13.993443604384
scalar RSUExampleScenario.node[85].veinsmobility 	totalDistance 	323.80830802547
scalar RSUExampleScenario.node[85].veinsmobility 	totalCO2Emission 	323.08545470005
scalar RSUExampleScenario.node[86].appl 	meanClusterNodes 	4
scalar RSUExampleScenario.node[86].appl 	meanClusterHeadUtility 	8.7264254162141
scalar RSUExampleScenario.node[86].appl 	NumberofCH 	0.10810810810811
scalar RSUExampleScenario.node[86].appl 	NumberofON 	0.37837837837838
scalar RSUExampleScenario.node[86].appl 	NumberofFN 	0.51351351351351
scalar RSUExampleScenario.node[86].veinsmobility 	startTime 	207.3
scalar RSUExampleScenario.node[86].veinsmobility 	totalTime 	242.7
scalar RSUExampleScenario.node[86].veinsmobility 	stopTime 	450
scalar RSUExampleScenario.node[86].veinsmobility 	minSpeed 	0
scalar RSUExampleScenario.node[86].veinsmobility 	maxSpeed 	13.855172473174
scalar RSUExampleScenario.node[86].veinsmobility 	totalDistance 	287.41893519711
scalar RSUExampleScenario.node[86].veinsmobility 	totalCO2Emission 	315.24194423529
scalar RSUExampleScenario.node[87].appl 	meanClusterNodes 	2.6666666666667
scalar RSUExampleScenario.node[87].appl 	meanClusterHeadUtility 	6.5700705731764
scalar RSUExampleScenario.node[87].appl 	NumberofCH 	0.16216216216216
scalar RSUExampleScenario.node[87].appl 	NumberofON 	0.48648648648649
scalar RSUExampleScenario.node[87].appl 	NumberofFN 	0.35135135135135
scalar RSUExampleScenario.node[87].veinsmobility 	startTime 	209.7
scalar RSUExampleScenario.node[87].veinsmobility 	totalTime 	240.3
scalar RSUExampleScenario.node[87].veinsmobility 	stopTime 	450
scalar RSUExampleScenario.node[87].veinsmobility 	minSpeed 	0
scalar RSUExampleScenario.node[87].veinsmobility 	maxSpeed 	13.83710666316
scalar RSUExampleScenario.node[87].veinsmobility 	totalDistance 	250.030497034
scalar RSUExampleScenario.node[87].veinsmobility 	totalCO2Emission 	299.75161172663
scalar RSUExampleScenario.node[88].appl 	meanClusterNodes 	1
scalar RSUExampleScenario.node[88].appl 	meanClusterHeadUtility 	18.261576384243
scalar RSUExampleScenario.node[88].appl 	NumberofCH 	0.054054054054054
scalar RSUExampleScenario.node[88].appl 	NumberofON 	0.7027027027027
scalar RSUExampleScenario.node[88].appl 	NumberofFN 	0.24324324324324
scalar RSUExampleScenario.node[88].veinsmobility 	startTime 	212.1
scalar RSUExampleScenario.node[88].veinsmobility 	totalTime 	237.9
scalar RSUExampleScenario.node[88].veinsmobility 	stopTime 	450
scalar RSUExampleScenario.node[88].veinsmobility 	minSpeed 	0
scalar RSUExampleScenario.node[88].veinsmobility 	maxSpeed 	13.883487635946
scalar RSUExampleScenario.node[88].veinsmobility 	totalDistance 	226.19456498417
scalar RSUExampleScenario.node[88].veinsmobility 	totalCO2Emission 	287.8101957879
scalar RSUExampleScenario.node[89].appl 	meanClusterNodes 	3.75
scalar RSUExampleScenario.node[89].appl 	meanClusterHeadUtility 	8.5514205682661
scalar RSUExampleScenario.node[89].appl 	NumberofCH 	0.10810810810811
scalar RSUExampleScenario.node[89].appl 	NumberofON 	0.64864864864865
scalar RSUExampleScenario.node[89].appl 	NumberofFN 	0.24324324324324
scalar RSUExampleScenario.node[89].veinsmobility 	startTime 	214.5
scalar RSUExampleScenario.node[89].veinsmobility 	totalTime 	235.5
scalar RSUExampleScenario.node[89].veinsmobility 	stopTime 	450
scalar RSUExampleScenario.node[89].veinsmobility 	minSpeed 	0
scalar RSUExampleScenario.node[89].veinsmobility 	maxSpeed 	13.819035941324
scalar RSUExampleScenario.node[89].veinsmobility 	totalDistance 	215.52457959635
scalar RSUExampleScenario.node[89].veinsmobility 	totalCO2Emission 	282.96798967889
scalar RSUExampleScenario.node[9].appl 	meanClusterNodes 	4.75
scalar RSUExampleScenario.node[9].appl 	meanClusterHeadUtility 	9.3692325233991
scalar RSUExampleScenario.node[9].appl 	NumberofCH 	0.10810810810811
scalar RSUExampleScenario.node[9].appl 	NumberofON 	0.48648648648649
scalar RSUExampleScenario.node[9].appl 	NumberofFN 	0.40540540540541
scalar RSUExampleScenario.node[9].veinsmobility 	startTime 	21.7
scalar RSUExampleScenario.node[9].veinsmobility 	totalTime 	428.3
scalar RSUExampleScenario.node[9].veinsmobility 	stopTime 	450
scalar RSUExampleScenario.node[9].veinsmobility 	minSpeed 	0
scalar RSUExampleScenario.node[9].veinsmobility 	maxSpeed 	13.99997743658
scalar RSUExampleScenario.node[9].veinsmobility 	totalDistance 	2824.5254079586
scalar RSUExampleScenario.node[9].veinsmobility 	totalCO2Emission 	764.44536516081
scalar RSUExampleScenario.node[90].appl 	meanClusterNodes 	4.8
scalar RSUExampleScenario.node[90].appl 	meanClusterHeadUtility 	7.6970212989431
scalar RSUExampleScenario.node[90].appl 	NumberofCH 	0.13513513513514
scalar RSUExampleScenario.node[90].appl 	NumberofON 	0.51351351351351
scalar RSUExampleScenario.node[90].appl 	NumberofFN 	0.35135135135135
scalar RSUExampleScenario.node[90].veinsmobility 	startTime 	217
scalar RSUExampleScenario.node[90].veinsmobility 	totalTime 	233
scalar RSUExampleScenario.node[90].veinsmobility 	stopTime 	450
scalar RSUExampleScenario.node[90].veinsmobility 	minSpeed 	0
scalar RSUExampleScenario.node[90].veinsmobility 	maxSpeed 	13.803546352794
scalar RSUExampleScenario.node[90].veinsmobility 	totalDistance 	202.37137196447
scalar RSUExampleScenario.node[90].veinsmobility 	totalCO2Emission 	280.65675212383
scalar RSUExampleScenario.node[91].appl 	meanClusterNodes 	5.25
scalar RSUExampleScenario.node[91].appl 	meanClusterHeadUtility 	10.11709695911
scalar RSUExampleScenario.node[91].appl 	NumberofCH 	0.10810810810811
scalar RSUExampleScenario.node[91].appl 	NumberofON 	0.48648648648649
scalar RSUExampleScenario.node[91].appl 	NumberofFN 	0.40540540540541
scalar RSUExampleScenario.node[91].veinsmobility 	startTime 	219.4
scalar RSUExampleScenario.node[91].veinsmobility 	totalTime 	230.6
scalar RSUExampleScenario.node[91].veinsmobility 	stopTime 	450
scalar RSUExampleScenario.node[91].veinsmobility 	minSpeed 	0
scalar RSUExampleScenario.node[91].veinsmobility 	maxSpeed 	13.843736448693
scalar RSUExampleScenario.node[91].veinsmobility 	totalDistance 	185.5307394361
scalar RSUExampleScenario.node[91].veinsmobility 	totalCO2Emission 	277.87298713336
scalar RSUExampleScenario.node[92].appl 	meanClusterNodes 	1.5
scalar RSUExampleScenario.node[92].appl 	meanClusterHeadUtility 	7.7283659032197
scalar RSUExampleScenario.node[92].appl 	NumberofCH 	0.10810810810811
scalar RSUExampleScenario.node[92].appl 	NumberofON 	0.59459459459459
scalar RSUExampleScenario.node[92].appl 	NumberofFN 	0.2972972972973
scalar RSUExampleScenario.node[92].veinsmobility 	startTime 	221.8
scalar RSUExampleScenario.node[92].veinsmobility 	totalTime 	228.2
scalar RSUExampleScenario.node[92].veinsmobility 	stopTime 	450
scalar RSUExampleScenario.node[92].veinsmobility 	minSpeed 	0
scalar RSUExampleScenario.node[92].veinsmobility 	maxSpeed 	13.823537539835
scalar RSUExampleScenario.node[92].veinsmobility 	totalDistance 	150.39782757153
scalar RSUExampleScenario.node[92].veinsmobility 	totalCO2Emission 	264.06761659169
scalar RSUExampleScenario.node[93].appl 	meanClusterNodes 	8.5
scalar RSUExampleScenario.node[93].appl 	meanClusterHeadUtility 	9.734123850417
scalar RSUExampleScenario.node[93].appl 	NumberofCH 	0.10810810810811
scalar RSUExampleScenario.node[93].appl 	NumberofON 	0.24324324324324
scalar RSUExampleScenario.node[93].appl 	NumberofFN 	0.64864864864865
scalar RSUExampleScenario.node[93].veinsmobility 	startTime 	224.2
scalar RSUExampleScenario.node[93].veinsmobility 	totalTime 	225.8
scalar RSUExampleScenario.node[93].veinsmobility 	stopTime 	450
scalar RSUExampleScenario.node[93].veinsmobility 	minSpeed 	0
scalar RSUExampleScenario.node[93].veinsmobility 	maxSpeed 	13.787433562469
scalar RSUExampleScenario.node[93].veinsmobility 	totalDistance 	123.60612901218
scalar RSUExampleScenario.node[93].veinsmobility 	totalCO2Emission 	251.36368948526
scalar RSUExampleScenario.node[94].appl 	meanClusterNodes 	1.5
scalar RSUExampleScenario.node[94].appl 	meanClusterHeadUtility 	9.2193530813145
scalar RSUExampleScenario.node[94].appl 	NumberofCH 	0.10810810810811
scalar RSUExampleScenario.node[94].appl 	NumberofON 	0.54054054054054
scalar RSUExampleScenario.node[94].appl 	NumberofFN 	0.35135135135135
scalar RSUExampleScenario.node[94].veinsmobility 	startTime 	226.6
scalar RSUExampleScenario.node[94].veinsmobility 	totalTime 	223.4
scalar RSUExampleScenario.node[94].veinsmobility 	stopTime 	450
scalar RSUExampleScenario.node[94].veinsmobility 	minSpeed 	0
scalar RSUExampleScenario.node[94].veinsmobility 	maxSpeed 	13.782611284833
scalar RSUExampleScenario.node[94].veinsmobility 	totalDistance 	112.35971663723
scalar RSUExampleScenario.node[94].veinsmobility 	totalCO2Emission 	245.88524665496
scalar RSUExampleScenario.node[95].appl 	meanClusterNodes 	1.25
scalar RSUExampleScenario.node[95].appl 	meanClusterHeadUtility 	9.4117040931965
scalar RSUExampleScenario.node[95].appl 	NumberofCH 	0.10810810810811
scalar RSUExampleScenario.node[95].appl 	NumberofON 	0.7027027027027
scalar RSUExampleScenario.node[95].appl 	NumberofFN 	0.18918918918919
scalar RSUExampleScenario.node[95].veinsmobility 	startTime 	229
scalar RSUExampleScenario.node[95].veinsmobility 	totalTime 	221
scalar RSUExampleScenario.node[95].veinsmobility 	stopTime 	450
scalar RSUExampleScenario.node[95].veinsmobility 	minSpeed 	0
scalar RSUExampleScenario.node[95].veinsmobility 	maxSpeed 	13.816026226978
scalar RSUExampleScenario.node[95].veinsmobility 	totalDistance 	99.22416872731
scalar RSUExampleScenario.node[95].veinsmobility 	totalCO2Emission 	242.42903594624
scalar RSUExampleScenario.node[96].appl 	meanClusterNodes 	3
scalar RSUExampleScenario.node[96].appl 	meanClusterHeadUtility 	18.186975504211
scalar RSUExampleScenario.node[96].appl 	NumberofCH 	0.054054054054054
scalar RSUExampleScenario.node[96].appl 	NumberofON 	0.18918918918919
scalar RSUExampleScenario.node[96].appl 	NumberofFN 	0.75675675675676
scalar RSUExampleScenario.node[96].veinsmobility 	startTime 	231.4
scalar RSUExampleScenario.node[96].veinsmobility 	totalTime 	218.6
scalar RSUExampleScenario.node[96].veinsmobility 	stopTime 	450
scalar RSUExampleScenario.node[96].veinsmobility 	minSpeed 	0
scalar RSUExampleScenario.node[96].veinsmobility 	maxSpeed 	13.776633554553
scalar RSUExampleScenario.node[96].veinsmobility 	totalDistance 	83.621228503777
scalar RSUExampleScenario.node[96].veinsmobility 	totalCO2Emission 	239.57249227437
scalar RSUExampleScenario.node[97].appl 	meanClusterNodes 	2
scalar RSUExampleScenario.node[97].appl 	meanClusterHeadUtility 	16.202102329693
scalar RSUExampleScenario.node[97].appl 	NumberofCH 	0.054054054054054
scalar RSUExampleScenario.node[97].appl 	NumberofON 	0.51351351351351
scalar RSUExampleScenario.node[97].appl 	NumberofFN 	0.43243243243243
scalar RSUExampleScenario.node[97].veinsmobility 	startTime 	233.8
scalar RSUExampleScenario.node[97].veinsmobility 	totalTime 	216.2
scalar RSUExampleScenario.node[97].veinsmobility 	stopTime 	450
scalar RSUExampleScenario.node[97].veinsmobility 	minSpeed 	0
scalar RSUExampleScenario.node[97].veinsmobility 	maxSpeed 	12.238412824203
scalar RSUExampleScenario.node[97].veinsmobility 	totalDistance 	55.475706843416
scalar RSUExampleScenario.node[97].veinsmobility 	totalCO2Emission 	231.61403065306
scalar RSUExampleScenario.node[98].appl 	meanClusterNodes 	0
scalar RSUExampleScenario.node[98].appl 	meanClusterHeadUtility 	0
scalar RSUExampleScenario.node[98].appl 	NumberofCH 	0.10810810810811
scalar RSUExampleScenario.node[98].appl 	NumberofON 	0.45945945945946
scalar RSUExampleScenario.node[98].appl 	NumberofFN 	0.43243243243243
scalar RSUExampleScenario.node[98].veinsmobility 	startTime 	236.2
scalar RSUExampleScenario.node[98].veinsmobility 	totalTime 	213.8
scalar RSUExampleScenario.node[98].veinsmobility 	stopTime 	450
scalar RSUExampleScenario.node[98].veinsmobility 	minSpeed 	0
scalar RSUExampleScenario.node[98].veinsmobility 	maxSpeed 	7.7738714356444
scalar RSUExampleScenario.node[98].veinsmobility 	totalDistance 	21.947269215773
scalar RSUExampleScenario.node[98].veinsmobility 	totalCO2Emission 	216.69927874124
scalar RSUExampleScenario.node[99].appl 	meanClusterNodes 	7
scalar RSUExampleScenario.node[99].appl 	meanClusterHeadUtility 	18.746831667183
scalar RSUExampleScenario.node[99].appl 	NumberofCH 	0.054054054054054
scalar RSUExampleScenario.node[99].appl 	NumberofON 	0.32432432432432
scalar RSUExampleScenario.node[99].appl 	NumberofFN 	0.62162162162162
scalar RSUExampleScenario.node[99].veinsmobility 	startTime 	238.6
scalar RSUExampleScenario.node[99].veinsmobility 	totalTime 	211.4
scalar RSUExampleScenario.node[99].veinsmobility 	stopTime 	450
scalar RSUExampleScenario.node[99].veinsmobility 	minSpeed 	0
scalar RSUExampleScenario.node[99].veinsmobility 	maxSpeed 	3.1149722680197
scalar RSUExampleScenario.node[99].veinsmobility 	totalDistance 	3.3526468263179
scalar RSUExampleScenario.node[99].veinsmobility 	totalCO2Emission 	207.12889984953
