version 2
run statisticRVV-217-20150326-07:20:42-1636
attr c 4
attr configname statisticRVV
attr datetime 20150326-07:20:42
attr experiment statisticRVV
attr inifile omnetpp.ini
attr iterationvars "$sc=\"erlangen-medium.launchd.xml\", $p=1/5, $c=4"
attr iterationvars2 "$sc=\"erlangen-medium.launchd.xml\", $p=1/5, $c=4, $repetition=7"
attr measurement "$sc=\"erlangen-medium.launchd.xml\", $p=1/5, $c=4"
attr network RSUExampleScenario
attr p 1/5
attr processid 1636
attr repetition 7
attr replication #7
attr resultdir results
attr runnumber 217
attr sc "\"erlangen-medium.launchd.xml\""
attr seedset 217

scalar . 	c 	4
scalar RSUExampleScenario.node[0].veinsmobility 	startTime 	0.1
scalar RSUExampleScenario.node[0].veinsmobility 	totalTime 	264.1
scalar RSUExampleScenario.node[0].veinsmobility 	stopTime 	264.3
scalar RSUExampleScenario.node[0].veinsmobility 	minSpeed 	0.25865239802515
scalar RSUExampleScenario.node[0].veinsmobility 	maxSpeed 	13.999877185628
scalar RSUExampleScenario.node[0].veinsmobility 	totalDistance 	3409.2689474738
scalar RSUExampleScenario.node[0].veinsmobility 	totalCO2Emission 	693.20904066237
scalar RSUExampleScenario.node[1].veinsmobility 	startTime 	3.1
scalar RSUExampleScenario.node[1].veinsmobility 	totalTime 	265.3
scalar RSUExampleScenario.node[1].veinsmobility 	stopTime 	268.5
scalar RSUExampleScenario.node[1].veinsmobility 	minSpeed 	0.25628620386776
scalar RSUExampleScenario.node[1].veinsmobility 	maxSpeed 	13.999968005742
scalar RSUExampleScenario.node[1].veinsmobility 	totalDistance 	3409.1688542008
scalar RSUExampleScenario.node[1].veinsmobility 	totalCO2Emission 	694.18043161029
scalar RSUExampleScenario.node[2].veinsmobility 	startTime 	6.1
scalar RSUExampleScenario.node[2].veinsmobility 	totalTime 	266
scalar RSUExampleScenario.node[2].veinsmobility 	stopTime 	272.2
scalar RSUExampleScenario.node[2].veinsmobility 	minSpeed 	0.25853283325443
scalar RSUExampleScenario.node[2].veinsmobility 	maxSpeed 	13.999976625792
scalar RSUExampleScenario.node[2].veinsmobility 	totalDistance 	3409.6068139337
scalar RSUExampleScenario.node[2].veinsmobility 	totalCO2Emission 	692.30069484325
scalar RSUExampleScenario.node[3].veinsmobility 	startTime 	9.1
scalar RSUExampleScenario.node[3].veinsmobility 	totalTime 	266.4
scalar RSUExampleScenario.node[3].veinsmobility 	stopTime 	275.6
scalar RSUExampleScenario.node[3].veinsmobility 	minSpeed 	0.253262325719
scalar RSUExampleScenario.node[3].veinsmobility 	maxSpeed 	13.999710790112
scalar RSUExampleScenario.node[3].veinsmobility 	totalDistance 	3409.6342234153
scalar RSUExampleScenario.node[3].veinsmobility 	totalCO2Emission 	693.714166816
scalar RSUExampleScenario.node[4].veinsmobility 	startTime 	12.1
scalar RSUExampleScenario.node[4].veinsmobility 	totalTime 	266.7
scalar RSUExampleScenario.node[4].veinsmobility 	stopTime 	278.9
scalar RSUExampleScenario.node[4].veinsmobility 	minSpeed 	0.24745994434366
scalar RSUExampleScenario.node[4].veinsmobility 	maxSpeed 	13.999722092117
scalar RSUExampleScenario.node[4].veinsmobility 	totalDistance 	3409.7805616068
scalar RSUExampleScenario.node[4].veinsmobility 	totalCO2Emission 	694.51233482871
scalar RSUExampleScenario.node[5].veinsmobility 	startTime 	15.1
scalar RSUExampleScenario.node[5].veinsmobility 	totalTime 	266.9
scalar RSUExampleScenario.node[5].veinsmobility 	stopTime 	282.1
scalar RSUExampleScenario.node[5].veinsmobility 	minSpeed 	0.25824519853666
scalar RSUExampleScenario.node[5].veinsmobility 	maxSpeed 	13.99998159419
scalar RSUExampleScenario.node[5].veinsmobility 	totalDistance 	3413.4819399075
scalar RSUExampleScenario.node[5].veinsmobility 	totalCO2Emission 	689.50760414409
scalar RSUExampleScenario.node[6].veinsmobility 	startTime 	18.1
scalar RSUExampleScenario.node[6].veinsmobility 	totalTime 	267
scalar RSUExampleScenario.node[6].veinsmobility 	stopTime 	285.2
scalar RSUExampleScenario.node[6].veinsmobility 	minSpeed 	0.2544037583794
scalar RSUExampleScenario.node[6].veinsmobility 	maxSpeed 	13.999981730154
scalar RSUExampleScenario.node[6].veinsmobility 	totalDistance 	3409.3466197958
scalar RSUExampleScenario.node[6].veinsmobility 	totalCO2Emission 	689.29844924014
scalar RSUExampleScenario.node[7].veinsmobility 	startTime 	21.1
scalar RSUExampleScenario.node[7].veinsmobility 	totalTime 	267
scalar RSUExampleScenario.node[7].veinsmobility 	stopTime 	288.2
scalar RSUExampleScenario.node[7].veinsmobility 	minSpeed 	0.25573019264266
scalar RSUExampleScenario.node[7].veinsmobility 	maxSpeed 	13.999757235788
scalar RSUExampleScenario.node[7].veinsmobility 	totalDistance 	3413.4919867872
scalar RSUExampleScenario.node[7].veinsmobility 	totalCO2Emission 	690.82009172633
scalar RSUExampleScenario.node[8].veinsmobility 	startTime 	24.1
scalar RSUExampleScenario.node[8].veinsmobility 	totalTime 	267
scalar RSUExampleScenario.node[8].veinsmobility 	stopTime 	291.2
scalar RSUExampleScenario.node[8].veinsmobility 	minSpeed 	0.25706736300513
scalar RSUExampleScenario.node[8].veinsmobility 	maxSpeed 	13.999970082399
scalar RSUExampleScenario.node[8].veinsmobility 	totalDistance 	3409.4453129197
scalar RSUExampleScenario.node[8].veinsmobility 	totalCO2Emission 	689.45135474128
scalar RSUExampleScenario.node[9].veinsmobility 	startTime 	27.1
scalar RSUExampleScenario.node[9].veinsmobility 	totalTime 	267.1
scalar RSUExampleScenario.node[9].veinsmobility 	stopTime 	294.3
scalar RSUExampleScenario.node[9].veinsmobility 	minSpeed 	0.25521873181546
scalar RSUExampleScenario.node[9].veinsmobility 	maxSpeed 	13.999967536347
scalar RSUExampleScenario.node[9].veinsmobility 	totalDistance 	3414.0316726649
scalar RSUExampleScenario.node[9].veinsmobility 	totalCO2Emission 	690.30729523759
scalar RSUExampleScenario.node[10].veinsmobility 	startTime 	30.1
scalar RSUExampleScenario.node[10].veinsmobility 	totalTime 	267.1
scalar RSUExampleScenario.node[10].veinsmobility 	stopTime 	297.3
scalar RSUExampleScenario.node[10].veinsmobility 	minSpeed 	0.25353043595282
scalar RSUExampleScenario.node[10].veinsmobility 	maxSpeed 	13.99995885567
scalar RSUExampleScenario.node[10].veinsmobility 	totalDistance 	3409.331606719
scalar RSUExampleScenario.node[10].veinsmobility 	totalCO2Emission 	692.30010399621
scalar RSUExampleScenario.node[11].veinsmobility 	startTime 	33.1
scalar RSUExampleScenario.node[11].veinsmobility 	totalTime 	267.1
scalar RSUExampleScenario.node[11].veinsmobility 	stopTime 	300.3
scalar RSUExampleScenario.node[11].veinsmobility 	minSpeed 	0.25899863452255
scalar RSUExampleScenario.node[11].veinsmobility 	maxSpeed 	13.999977845591
scalar RSUExampleScenario.node[11].veinsmobility 	totalDistance 	3413.6322605852
scalar RSUExampleScenario.node[11].veinsmobility 	totalCO2Emission 	691.06262666674
scalar RSUExampleScenario.node[12].veinsmobility 	startTime 	36.1
scalar RSUExampleScenario.node[12].veinsmobility 	totalTime 	267.1
scalar RSUExampleScenario.node[12].veinsmobility 	stopTime 	303.3
scalar RSUExampleScenario.node[12].veinsmobility 	minSpeed 	0.25999401625572
scalar RSUExampleScenario.node[12].veinsmobility 	maxSpeed 	13.999805545518
scalar RSUExampleScenario.node[12].veinsmobility 	totalDistance 	3409.2022149038
scalar RSUExampleScenario.node[12].veinsmobility 	totalCO2Emission 	692.52636623731
scalar RSUExampleScenario.node[13].veinsmobility 	startTime 	39.1
scalar RSUExampleScenario.node[13].veinsmobility 	totalTime 	267.2
scalar RSUExampleScenario.node[13].veinsmobility 	stopTime 	306.4
scalar RSUExampleScenario.node[13].veinsmobility 	minSpeed 	0.25171619504341
scalar RSUExampleScenario.node[13].veinsmobility 	maxSpeed 	13.999719293236
scalar RSUExampleScenario.node[13].veinsmobility 	totalDistance 	3413.976895264
scalar RSUExampleScenario.node[13].veinsmobility 	totalCO2Emission 	689.56536283036
scalar RSUExampleScenario.node[14].veinsmobility 	startTime 	42.1
scalar RSUExampleScenario.node[14].veinsmobility 	totalTime 	267.2
scalar RSUExampleScenario.node[14].veinsmobility 	stopTime 	309.4
scalar RSUExampleScenario.node[14].veinsmobility 	minSpeed 	0.25433836087445
scalar RSUExampleScenario.node[14].veinsmobility 	maxSpeed 	13.999812025621
scalar RSUExampleScenario.node[14].veinsmobility 	totalDistance 	3409.5818584253
scalar RSUExampleScenario.node[14].veinsmobility 	totalCO2Emission 	686.75342592623
scalar RSUExampleScenario.node[15].veinsmobility 	startTime 	45.1
scalar RSUExampleScenario.node[15].veinsmobility 	totalTime 	267.2
scalar RSUExampleScenario.node[15].veinsmobility 	stopTime 	312.4
scalar RSUExampleScenario.node[15].veinsmobility 	minSpeed 	0.25534925575135
scalar RSUExampleScenario.node[15].veinsmobility 	maxSpeed 	13.999808747871
scalar RSUExampleScenario.node[15].veinsmobility 	totalDistance 	3413.4075375228
scalar RSUExampleScenario.node[15].veinsmobility 	totalCO2Emission 	695.48332849018
scalar RSUExampleScenario.node[16].veinsmobility 	startTime 	48.1
scalar RSUExampleScenario.node[16].veinsmobility 	totalTime 	267.2
scalar RSUExampleScenario.node[16].veinsmobility 	stopTime 	315.4
scalar RSUExampleScenario.node[16].veinsmobility 	minSpeed 	0.24784140191996
scalar RSUExampleScenario.node[16].veinsmobility 	maxSpeed 	13.99987520704
scalar RSUExampleScenario.node[16].veinsmobility 	totalDistance 	3409.8478675696
scalar RSUExampleScenario.node[16].veinsmobility 	totalCO2Emission 	691.30115506594
scalar RSUExampleScenario.node[17].veinsmobility 	startTime 	51.1
scalar RSUExampleScenario.node[17].veinsmobility 	totalTime 	267.2
scalar RSUExampleScenario.node[17].veinsmobility 	stopTime 	318.4
scalar RSUExampleScenario.node[17].veinsmobility 	minSpeed 	0.25576786970207
scalar RSUExampleScenario.node[17].veinsmobility 	maxSpeed 	13.999734186779
scalar RSUExampleScenario.node[17].veinsmobility 	totalDistance 	3413.6312746442
scalar RSUExampleScenario.node[17].veinsmobility 	totalCO2Emission 	691.58732079801
scalar RSUExampleScenario.node[18].veinsmobility 	startTime 	54.1
scalar RSUExampleScenario.node[18].veinsmobility 	totalTime 	267.2
scalar RSUExampleScenario.node[18].veinsmobility 	stopTime 	321.4
scalar RSUExampleScenario.node[18].veinsmobility 	minSpeed 	0.25980654316
scalar RSUExampleScenario.node[18].veinsmobility 	maxSpeed 	13.999993458393
scalar RSUExampleScenario.node[18].veinsmobility 	totalDistance 	3409.3828213008
scalar RSUExampleScenario.node[18].veinsmobility 	totalCO2Emission 	692.0314821382
scalar RSUExampleScenario.node[19].veinsmobility 	startTime 	57.1
scalar RSUExampleScenario.node[19].veinsmobility 	totalTime 	267.2
scalar RSUExampleScenario.node[19].veinsmobility 	stopTime 	324.4
scalar RSUExampleScenario.node[19].veinsmobility 	minSpeed 	0.25100959306885
scalar RSUExampleScenario.node[19].veinsmobility 	maxSpeed 	13.99986946932
scalar RSUExampleScenario.node[19].veinsmobility 	totalDistance 	3409.6112093725
scalar RSUExampleScenario.node[19].veinsmobility 	totalCO2Emission 	690.01540745114
scalar RSUExampleScenario.node[20].veinsmobility 	startTime 	60.1
scalar RSUExampleScenario.node[20].veinsmobility 	totalTime 	267.2
scalar RSUExampleScenario.node[20].veinsmobility 	stopTime 	327.4
scalar RSUExampleScenario.node[20].veinsmobility 	minSpeed 	0.24730694542802
scalar RSUExampleScenario.node[20].veinsmobility 	maxSpeed 	13.999924329284
scalar RSUExampleScenario.node[20].veinsmobility 	totalDistance 	3413.7624672765
scalar RSUExampleScenario.node[20].veinsmobility 	totalCO2Emission 	692.48488495789
scalar RSUExampleScenario.node[21].veinsmobility 	startTime 	63.1
scalar RSUExampleScenario.node[21].veinsmobility 	totalTime 	267.2
scalar RSUExampleScenario.node[21].veinsmobility 	stopTime 	330.4
scalar RSUExampleScenario.node[21].veinsmobility 	minSpeed 	0.25437761586742
scalar RSUExampleScenario.node[21].veinsmobility 	maxSpeed 	13.999652572339
scalar RSUExampleScenario.node[21].veinsmobility 	totalDistance 	3409.5107954581
scalar RSUExampleScenario.node[21].veinsmobility 	totalCO2Emission 	689.38117548684
scalar RSUExampleScenario.node[22].veinsmobility 	startTime 	66.1
scalar RSUExampleScenario.node[22].veinsmobility 	totalTime 	267.2
scalar RSUExampleScenario.node[22].veinsmobility 	stopTime 	333.4
scalar RSUExampleScenario.node[22].veinsmobility 	minSpeed 	0.248148466171
scalar RSUExampleScenario.node[22].veinsmobility 	maxSpeed 	13.999990074462
scalar RSUExampleScenario.node[22].veinsmobility 	totalDistance 	3413.8575566207
scalar RSUExampleScenario.node[22].veinsmobility 	totalCO2Emission 	690.71050363849
scalar RSUExampleScenario.node[23].veinsmobility 	startTime 	69.1
scalar RSUExampleScenario.node[23].veinsmobility 	totalTime 	267.2
scalar RSUExampleScenario.node[23].veinsmobility 	stopTime 	336.4
scalar RSUExampleScenario.node[23].veinsmobility 	minSpeed 	0.24708069735626
scalar RSUExampleScenario.node[23].veinsmobility 	maxSpeed 	13.999893382147
scalar RSUExampleScenario.node[23].veinsmobility 	totalDistance 	3409.5986500346
scalar RSUExampleScenario.node[23].veinsmobility 	totalCO2Emission 	691.05652380667
scalar RSUExampleScenario.node[24].veinsmobility 	startTime 	72.1
scalar RSUExampleScenario.node[24].veinsmobility 	totalTime 	267.2
scalar RSUExampleScenario.node[24].veinsmobility 	stopTime 	339.4
scalar RSUExampleScenario.node[24].veinsmobility 	minSpeed 	0.24716080375738
scalar RSUExampleScenario.node[24].veinsmobility 	maxSpeed 	13.999840833719
scalar RSUExampleScenario.node[24].veinsmobility 	totalDistance 	3413.9449592
scalar RSUExampleScenario.node[24].veinsmobility 	totalCO2Emission 	690.384481588
scalar RSUExampleScenario.node[25].veinsmobility 	startTime 	75.1
scalar RSUExampleScenario.node[25].veinsmobility 	totalTime 	267.3
scalar RSUExampleScenario.node[25].veinsmobility 	stopTime 	342.5
scalar RSUExampleScenario.node[25].veinsmobility 	minSpeed 	0.25037931859819
scalar RSUExampleScenario.node[25].veinsmobility 	maxSpeed 	13.999937374876
scalar RSUExampleScenario.node[25].veinsmobility 	totalDistance 	3410.131511136
scalar RSUExampleScenario.node[25].veinsmobility 	totalCO2Emission 	693.20902973807
scalar RSUExampleScenario.node[26].veinsmobility 	startTime 	78.1
scalar RSUExampleScenario.node[26].veinsmobility 	totalTime 	267.4
scalar RSUExampleScenario.node[26].veinsmobility 	stopTime 	345.6
scalar RSUExampleScenario.node[26].veinsmobility 	minSpeed 	0.25972859798372
scalar RSUExampleScenario.node[26].veinsmobility 	maxSpeed 	13.999910473449
scalar RSUExampleScenario.node[26].veinsmobility 	totalDistance 	3414.1414464911
scalar RSUExampleScenario.node[26].veinsmobility 	totalCO2Emission 	690.16316115996
scalar RSUExampleScenario.node[27].veinsmobility 	startTime 	81.1
scalar RSUExampleScenario.node[27].veinsmobility 	totalTime 	267.5
scalar RSUExampleScenario.node[27].veinsmobility 	stopTime 	348.7
scalar RSUExampleScenario.node[27].veinsmobility 	minSpeed 	0.24980554707977
scalar RSUExampleScenario.node[27].veinsmobility 	maxSpeed 	13.999880304169
scalar RSUExampleScenario.node[27].veinsmobility 	totalDistance 	3409.8436142722
scalar RSUExampleScenario.node[27].veinsmobility 	totalCO2Emission 	693.62354587717
scalar RSUExampleScenario.node[28].veinsmobility 	startTime 	84.1
scalar RSUExampleScenario.node[28].veinsmobility 	totalTime 	267.6
scalar RSUExampleScenario.node[28].veinsmobility 	stopTime 	351.8
scalar RSUExampleScenario.node[28].veinsmobility 	minSpeed 	0.25131852809316
scalar RSUExampleScenario.node[28].veinsmobility 	maxSpeed 	13.999959422862
scalar RSUExampleScenario.node[28].veinsmobility 	totalDistance 	3413.6550250388
scalar RSUExampleScenario.node[28].veinsmobility 	totalCO2Emission 	690.498236196
scalar RSUExampleScenario.node[29].veinsmobility 	startTime 	87.1
scalar RSUExampleScenario.node[29].veinsmobility 	totalTime 	267.6
scalar RSUExampleScenario.node[29].veinsmobility 	stopTime 	354.8
scalar RSUExampleScenario.node[29].veinsmobility 	minSpeed 	0.25573936175625
scalar RSUExampleScenario.node[29].veinsmobility 	maxSpeed 	13.99997277068
scalar RSUExampleScenario.node[29].veinsmobility 	totalDistance 	3409.4140122092
scalar RSUExampleScenario.node[29].veinsmobility 	totalCO2Emission 	691.96206718438
scalar RSUExampleScenario.node[30].veinsmobility 	startTime 	90.1
scalar RSUExampleScenario.node[30].veinsmobility 	totalTime 	267.7
scalar RSUExampleScenario.node[30].veinsmobility 	stopTime 	357.9
scalar RSUExampleScenario.node[30].veinsmobility 	minSpeed 	0.24968883308698
scalar RSUExampleScenario.node[30].veinsmobility 	maxSpeed 	13.999533018919
scalar RSUExampleScenario.node[30].veinsmobility 	totalDistance 	3413.5339281125
scalar RSUExampleScenario.node[30].veinsmobility 	totalCO2Emission 	692.0564321901
scalar RSUExampleScenario.node[31].veinsmobility 	startTime 	93.1
scalar RSUExampleScenario.node[31].veinsmobility 	totalTime 	267.8
scalar RSUExampleScenario.node[31].veinsmobility 	stopTime 	361
scalar RSUExampleScenario.node[31].veinsmobility 	minSpeed 	0.25310593224596
scalar RSUExampleScenario.node[31].veinsmobility 	maxSpeed 	13.999968219253
scalar RSUExampleScenario.node[31].veinsmobility 	totalDistance 	3409.6806394413
scalar RSUExampleScenario.node[31].veinsmobility 	totalCO2Emission 	685.6855211525
scalar RSUExampleScenario.node[32].veinsmobility 	startTime 	96.1
scalar RSUExampleScenario.node[32].veinsmobility 	totalTime 	268
scalar RSUExampleScenario.node[32].veinsmobility 	stopTime 	364.2
scalar RSUExampleScenario.node[32].veinsmobility 	minSpeed 	0.24866810157546
scalar RSUExampleScenario.node[32].veinsmobility 	maxSpeed 	13.999938282673
scalar RSUExampleScenario.node[32].veinsmobility 	totalDistance 	3414.0768038235
scalar RSUExampleScenario.node[32].veinsmobility 	totalCO2Emission 	694.44927059238
scalar RSUExampleScenario.node[33].veinsmobility 	startTime 	99.1
scalar RSUExampleScenario.node[33].veinsmobility 	totalTime 	268.2
scalar RSUExampleScenario.node[33].veinsmobility 	stopTime 	367.4
scalar RSUExampleScenario.node[33].veinsmobility 	minSpeed 	0.25045636979747
scalar RSUExampleScenario.node[33].veinsmobility 	maxSpeed 	13.999979244214
scalar RSUExampleScenario.node[33].veinsmobility 	totalDistance 	3409.4103012941
scalar RSUExampleScenario.node[33].veinsmobility 	totalCO2Emission 	693.21119621155
scalar RSUExampleScenario.node[34].veinsmobility 	startTime 	102.1
scalar RSUExampleScenario.node[34].veinsmobility 	totalTime 	268.4
scalar RSUExampleScenario.node[34].veinsmobility 	stopTime 	370.6
scalar RSUExampleScenario.node[34].veinsmobility 	minSpeed 	0.25262882524729
scalar RSUExampleScenario.node[34].veinsmobility 	maxSpeed 	13.999946705133
scalar RSUExampleScenario.node[34].veinsmobility 	totalDistance 	3413.4980268228
scalar RSUExampleScenario.node[34].veinsmobility 	totalCO2Emission 	689.37634682817
scalar RSUExampleScenario.node[35].veinsmobility 	startTime 	105.1
scalar RSUExampleScenario.node[35].veinsmobility 	totalTime 	268.7
scalar RSUExampleScenario.node[35].veinsmobility 	stopTime 	373.9
scalar RSUExampleScenario.node[35].veinsmobility 	minSpeed 	0.25680492143799
scalar RSUExampleScenario.node[35].veinsmobility 	maxSpeed 	13.999687629323
scalar RSUExampleScenario.node[35].veinsmobility 	totalDistance 	3410.1787650361
scalar RSUExampleScenario.node[35].veinsmobility 	totalCO2Emission 	690.67743134356
scalar RSUExampleScenario.node[36].veinsmobility 	startTime 	108.1
scalar RSUExampleScenario.node[36].veinsmobility 	totalTime 	269
scalar RSUExampleScenario.node[36].veinsmobility 	stopTime 	377.2
scalar RSUExampleScenario.node[36].veinsmobility 	minSpeed 	0.25627327759843
scalar RSUExampleScenario.node[36].veinsmobility 	maxSpeed 	13.999905624397
scalar RSUExampleScenario.node[36].veinsmobility 	totalDistance 	3413.4446048975
scalar RSUExampleScenario.node[36].veinsmobility 	totalCO2Emission 	687.46467815372
scalar RSUExampleScenario.node[37].veinsmobility 	startTime 	111.1
scalar RSUExampleScenario.node[37].veinsmobility 	totalTime 	269.4
scalar RSUExampleScenario.node[37].veinsmobility 	stopTime 	380.6
scalar RSUExampleScenario.node[37].veinsmobility 	minSpeed 	0.25245814667526
scalar RSUExampleScenario.node[37].veinsmobility 	maxSpeed 	13.999999427451
scalar RSUExampleScenario.node[37].veinsmobility 	totalDistance 	3409.9846750602
scalar RSUExampleScenario.node[37].veinsmobility 	totalCO2Emission 	693.92047697822
scalar RSUExampleScenario.node[38].veinsmobility 	startTime 	114.1
scalar RSUExampleScenario.node[38].veinsmobility 	totalTime 	269.8
scalar RSUExampleScenario.node[38].veinsmobility 	stopTime 	384
scalar RSUExampleScenario.node[38].veinsmobility 	minSpeed 	0.24915762657439
scalar RSUExampleScenario.node[38].veinsmobility 	maxSpeed 	13.999964159257
scalar RSUExampleScenario.node[38].veinsmobility 	totalDistance 	3414.0272797669
scalar RSUExampleScenario.node[38].veinsmobility 	totalCO2Emission 	691.9505241162
scalar RSUExampleScenario.node[39].veinsmobility 	startTime 	117.1
scalar RSUExampleScenario.node[39].veinsmobility 	totalTime 	270.3
scalar RSUExampleScenario.node[39].veinsmobility 	stopTime 	387.5
scalar RSUExampleScenario.node[39].veinsmobility 	minSpeed 	0.25892773029977
scalar RSUExampleScenario.node[39].veinsmobility 	maxSpeed 	13.999978825003
scalar RSUExampleScenario.node[39].veinsmobility 	totalDistance 	3409.8747528144
scalar RSUExampleScenario.node[39].veinsmobility 	totalCO2Emission 	693.93518409613
scalar RSUExampleScenario.node[40].veinsmobility 	startTime 	120.1
scalar RSUExampleScenario.node[40].veinsmobility 	totalTime 	270.9
scalar RSUExampleScenario.node[40].veinsmobility 	stopTime 	391.1
scalar RSUExampleScenario.node[40].veinsmobility 	minSpeed 	0.2566073395561
scalar RSUExampleScenario.node[40].veinsmobility 	maxSpeed 	13.999975159096
scalar RSUExampleScenario.node[40].veinsmobility 	totalDistance 	3413.9830352076
scalar RSUExampleScenario.node[40].veinsmobility 	totalCO2Emission 	693.78934815858
scalar RSUExampleScenario.node[41].veinsmobility 	startTime 	123.1
scalar RSUExampleScenario.node[41].veinsmobility 	totalTime 	271.5
scalar RSUExampleScenario.node[41].veinsmobility 	stopTime 	394.7
scalar RSUExampleScenario.node[41].veinsmobility 	minSpeed 	0.25398608927405
scalar RSUExampleScenario.node[41].veinsmobility 	maxSpeed 	13.999947601429
scalar RSUExampleScenario.node[41].veinsmobility 	totalDistance 	3409.9522820428
scalar RSUExampleScenario.node[41].veinsmobility 	totalCO2Emission 	695.04846501642
scalar RSUExampleScenario.node[42].veinsmobility 	startTime 	126.1
scalar RSUExampleScenario.node[42].veinsmobility 	totalTime 	272.2
scalar RSUExampleScenario.node[42].veinsmobility 	stopTime 	398.4
scalar RSUExampleScenario.node[42].veinsmobility 	minSpeed 	0.24837708358723
scalar RSUExampleScenario.node[42].veinsmobility 	maxSpeed 	13.999898901121
scalar RSUExampleScenario.node[42].veinsmobility 	totalDistance 	3414.053248214
scalar RSUExampleScenario.node[42].veinsmobility 	totalCO2Emission 	693.32885866071
scalar RSUExampleScenario.node[43].veinsmobility 	startTime 	129.1
scalar RSUExampleScenario.node[43].veinsmobility 	totalTime 	273
scalar RSUExampleScenario.node[43].veinsmobility 	stopTime 	402.2
scalar RSUExampleScenario.node[43].veinsmobility 	minSpeed 	0.2559998772596
scalar RSUExampleScenario.node[43].veinsmobility 	maxSpeed 	13.999937721232
scalar RSUExampleScenario.node[43].veinsmobility 	totalDistance 	3410.0893180423
scalar RSUExampleScenario.node[43].veinsmobility 	totalCO2Emission 	697.21249032493
scalar RSUExampleScenario.node[44].veinsmobility 	startTime 	132.1
scalar RSUExampleScenario.node[44].veinsmobility 	totalTime 	273.7
scalar RSUExampleScenario.node[44].veinsmobility 	stopTime 	405.9
scalar RSUExampleScenario.node[44].veinsmobility 	minSpeed 	0.24897719752253
scalar RSUExampleScenario.node[44].veinsmobility 	maxSpeed 	13.999982393356
scalar RSUExampleScenario.node[44].veinsmobility 	totalDistance 	3409.7993632426
scalar RSUExampleScenario.node[44].veinsmobility 	totalCO2Emission 	696.01230718511
scalar RSUExampleScenario.node[45].veinsmobility 	startTime 	135.1
scalar RSUExampleScenario.node[45].veinsmobility 	totalTime 	274.4
scalar RSUExampleScenario.node[45].veinsmobility 	stopTime 	409.6
scalar RSUExampleScenario.node[45].veinsmobility 	minSpeed 	0.25391618065303
scalar RSUExampleScenario.node[45].veinsmobility 	maxSpeed 	13.999913953904
scalar RSUExampleScenario.node[45].veinsmobility 	totalDistance 	3413.8453674891
scalar RSUExampleScenario.node[45].veinsmobility 	totalCO2Emission 	695.65726059766
scalar RSUExampleScenario.node[46].veinsmobility 	startTime 	138.1
scalar RSUExampleScenario.node[46].veinsmobility 	totalTime 	275.1
scalar RSUExampleScenario.node[46].veinsmobility 	stopTime 	413.3
scalar RSUExampleScenario.node[46].veinsmobility 	minSpeed 	0.25925530749327
scalar RSUExampleScenario.node[46].veinsmobility 	maxSpeed 	13.99998390612
scalar RSUExampleScenario.node[46].veinsmobility 	totalDistance 	3410.2253659136
scalar RSUExampleScenario.node[46].veinsmobility 	totalCO2Emission 	695.88988291693
scalar RSUExampleScenario.node[47].veinsmobility 	startTime 	141.1
scalar RSUExampleScenario.node[47].veinsmobility 	totalTime 	275.8
scalar RSUExampleScenario.node[47].veinsmobility 	stopTime 	417
scalar RSUExampleScenario.node[47].veinsmobility 	minSpeed 	0.252604149319
scalar RSUExampleScenario.node[47].veinsmobility 	maxSpeed 	13.999981745319
scalar RSUExampleScenario.node[47].veinsmobility 	totalDistance 	3413.5933554628
scalar RSUExampleScenario.node[47].veinsmobility 	totalCO2Emission 	693.13469374442
scalar RSUExampleScenario.node[48].veinsmobility 	startTime 	144.1
scalar RSUExampleScenario.node[48].veinsmobility 	totalTime 	276.5
scalar RSUExampleScenario.node[48].veinsmobility 	stopTime 	420.7
scalar RSUExampleScenario.node[48].veinsmobility 	minSpeed 	0.25883873712784
scalar RSUExampleScenario.node[48].veinsmobility 	maxSpeed 	13.999788844401
scalar RSUExampleScenario.node[48].veinsmobility 	totalDistance 	3409.4155235919
scalar RSUExampleScenario.node[48].veinsmobility 	totalCO2Emission 	699.17811296339
scalar RSUExampleScenario.node[49].veinsmobility 	startTime 	147.1
scalar RSUExampleScenario.node[49].veinsmobility 	totalTime 	277.2
scalar RSUExampleScenario.node[49].veinsmobility 	stopTime 	424.4
scalar RSUExampleScenario.node[49].veinsmobility 	minSpeed 	0.25845455448865
scalar RSUExampleScenario.node[49].veinsmobility 	maxSpeed 	13.999929652726
scalar RSUExampleScenario.node[49].veinsmobility 	totalDistance 	3413.9954931178
scalar RSUExampleScenario.node[49].veinsmobility 	totalCO2Emission 	696.0732472749
scalar RSUExampleScenario.node[50].veinsmobility 	startTime 	150.1
scalar RSUExampleScenario.node[50].veinsmobility 	totalTime 	277.8
scalar RSUExampleScenario.node[50].veinsmobility 	stopTime 	428
scalar RSUExampleScenario.node[50].veinsmobility 	minSpeed 	0.25344712287979
scalar RSUExampleScenario.node[50].veinsmobility 	maxSpeed 	13.999829669131
scalar RSUExampleScenario.node[50].veinsmobility 	totalDistance 	3409.7168165573
scalar RSUExampleScenario.node[50].veinsmobility 	totalCO2Emission 	699.30654967196
scalar RSUExampleScenario.node[51].veinsmobility 	startTime 	153.1
scalar RSUExampleScenario.node[51].veinsmobility 	totalTime 	278.5
scalar RSUExampleScenario.node[51].veinsmobility 	stopTime 	431.7
scalar RSUExampleScenario.node[51].veinsmobility 	minSpeed 	0.25938050356787
scalar RSUExampleScenario.node[51].veinsmobility 	maxSpeed 	13.999966781251
scalar RSUExampleScenario.node[51].veinsmobility 	totalDistance 	3414.304448266
scalar RSUExampleScenario.node[51].veinsmobility 	totalCO2Emission 	700.61269781528
scalar RSUExampleScenario.node[52].veinsmobility 	startTime 	156.1
scalar RSUExampleScenario.node[52].veinsmobility 	totalTime 	279.2
scalar RSUExampleScenario.node[52].veinsmobility 	stopTime 	435.4
scalar RSUExampleScenario.node[52].veinsmobility 	minSpeed 	0.24841195150535
scalar RSUExampleScenario.node[52].veinsmobility 	maxSpeed 	13.999970774022
scalar RSUExampleScenario.node[52].veinsmobility 	totalDistance 	3409.5882761088
scalar RSUExampleScenario.node[52].veinsmobility 	totalCO2Emission 	702.59182407148
scalar RSUExampleScenario.node[53].veinsmobility 	startTime 	159.1
scalar RSUExampleScenario.node[53].veinsmobility 	totalTime 	279.9
scalar RSUExampleScenario.node[53].veinsmobility 	stopTime 	439.1
scalar RSUExampleScenario.node[53].veinsmobility 	minSpeed 	0.25556459775404
scalar RSUExampleScenario.node[53].veinsmobility 	maxSpeed 	13.999881413097
scalar RSUExampleScenario.node[53].veinsmobility 	totalDistance 	3413.9726092168
scalar RSUExampleScenario.node[53].veinsmobility 	totalCO2Emission 	703.71625303491
scalar RSUExampleScenario.node[54].veinsmobility 	startTime 	162.1
scalar RSUExampleScenario.node[54].veinsmobility 	totalTime 	280.5
scalar RSUExampleScenario.node[54].veinsmobility 	stopTime 	442.7
scalar RSUExampleScenario.node[54].veinsmobility 	minSpeed 	0.25297233095509
scalar RSUExampleScenario.node[54].veinsmobility 	maxSpeed 	13.999945181261
scalar RSUExampleScenario.node[54].veinsmobility 	totalDistance 	3409.6502098272
scalar RSUExampleScenario.node[54].veinsmobility 	totalCO2Emission 	701.42832847366
scalar RSUExampleScenario.node[55].veinsmobility 	startTime 	165.1
scalar RSUExampleScenario.node[55].veinsmobility 	totalTime 	281.2
scalar RSUExampleScenario.node[55].veinsmobility 	stopTime 	446.4
scalar RSUExampleScenario.node[55].veinsmobility 	minSpeed 	0.24709428346762
scalar RSUExampleScenario.node[55].veinsmobility 	maxSpeed 	13.999831706984
scalar RSUExampleScenario.node[55].veinsmobility 	totalDistance 	3413.772644904
scalar RSUExampleScenario.node[55].veinsmobility 	totalCO2Emission 	701.46855808683
scalar RSUExampleScenario.node[56].veinsmobility 	startTime 	168.1
scalar RSUExampleScenario.node[56].veinsmobility 	totalTime 	281.9
scalar RSUExampleScenario.node[56].veinsmobility 	stopTime 	450.1
scalar RSUExampleScenario.node[56].veinsmobility 	minSpeed 	0.24837478554202
scalar RSUExampleScenario.node[56].veinsmobility 	maxSpeed 	13.999902297673
scalar RSUExampleScenario.node[56].veinsmobility 	totalDistance 	3409.5360650286
scalar RSUExampleScenario.node[56].veinsmobility 	totalCO2Emission 	708.05487972201
scalar RSUExampleScenario.node[57].veinsmobility 	startTime 	171.1
scalar RSUExampleScenario.node[57].veinsmobility 	totalTime 	282.6
scalar RSUExampleScenario.node[57].veinsmobility 	stopTime 	453.8
scalar RSUExampleScenario.node[57].veinsmobility 	minSpeed 	0.2593670911584
scalar RSUExampleScenario.node[57].veinsmobility 	maxSpeed 	13.9999371969
scalar RSUExampleScenario.node[57].veinsmobility 	totalDistance 	3413.6895516949
scalar RSUExampleScenario.node[57].veinsmobility 	totalCO2Emission 	704.77895405783
scalar RSUExampleScenario.node[58].veinsmobility 	startTime 	174.1
scalar RSUExampleScenario.node[58].veinsmobility 	totalTime 	283.3
scalar RSUExampleScenario.node[58].veinsmobility 	stopTime 	457.5
scalar RSUExampleScenario.node[58].veinsmobility 	minSpeed 	0.25443604455353
scalar RSUExampleScenario.node[58].veinsmobility 	maxSpeed 	13.99997229741
scalar RSUExampleScenario.node[58].veinsmobility 	totalDistance 	3409.8290369079
scalar RSUExampleScenario.node[58].veinsmobility 	totalCO2Emission 	704.67149991191
scalar RSUExampleScenario.node[59].veinsmobility 	startTime 	177.1
scalar RSUExampleScenario.node[59].veinsmobility 	totalTime 	284.1
scalar RSUExampleScenario.node[59].veinsmobility 	stopTime 	461.3
scalar RSUExampleScenario.node[59].veinsmobility 	minSpeed 	0.25722005382599
scalar RSUExampleScenario.node[59].veinsmobility 	maxSpeed 	13.999831708255
scalar RSUExampleScenario.node[59].veinsmobility 	totalDistance 	3413.9601482745
scalar RSUExampleScenario.node[59].veinsmobility 	totalCO2Emission 	705.65667252404
scalar RSUExampleScenario.node[60].veinsmobility 	startTime 	180.1
scalar RSUExampleScenario.node[60].veinsmobility 	totalTime 	284.8
scalar RSUExampleScenario.node[60].veinsmobility 	stopTime 	465
scalar RSUExampleScenario.node[60].veinsmobility 	minSpeed 	0.25371718476294
scalar RSUExampleScenario.node[60].veinsmobility 	maxSpeed 	13.999943004267
scalar RSUExampleScenario.node[60].veinsmobility 	totalDistance 	3409.7197099299
scalar RSUExampleScenario.node[60].veinsmobility 	totalCO2Emission 	705.21581817045
scalar RSUExampleScenario.node[61].veinsmobility 	startTime 	183.1
scalar RSUExampleScenario.node[61].veinsmobility 	totalTime 	285.5
scalar RSUExampleScenario.node[61].veinsmobility 	stopTime 	468.7
scalar RSUExampleScenario.node[61].veinsmobility 	minSpeed 	0.25340680742078
scalar RSUExampleScenario.node[61].veinsmobility 	maxSpeed 	13.999944011162
scalar RSUExampleScenario.node[61].veinsmobility 	totalDistance 	3413.7931062209
scalar RSUExampleScenario.node[61].veinsmobility 	totalCO2Emission 	708.55242122953
scalar RSUExampleScenario.node[62].veinsmobility 	startTime 	186.1
scalar RSUExampleScenario.node[62].veinsmobility 	totalTime 	286.2
scalar RSUExampleScenario.node[62].veinsmobility 	stopTime 	472.4
scalar RSUExampleScenario.node[62].veinsmobility 	minSpeed 	0.25434494420025
scalar RSUExampleScenario.node[62].veinsmobility 	maxSpeed 	13.99994386191
scalar RSUExampleScenario.node[62].veinsmobility 	totalDistance 	3409.8537957933
scalar RSUExampleScenario.node[62].veinsmobility 	totalCO2Emission 	706.13629107652
scalar RSUExampleScenario.node[63].veinsmobility 	startTime 	189.1
scalar RSUExampleScenario.node[63].veinsmobility 	totalTime 	286.9
scalar RSUExampleScenario.node[63].veinsmobility 	stopTime 	476.1
scalar RSUExampleScenario.node[63].veinsmobility 	minSpeed 	0.24868328912347
scalar RSUExampleScenario.node[63].veinsmobility 	maxSpeed 	13.999993447647
scalar RSUExampleScenario.node[63].veinsmobility 	totalDistance 	3413.8806938517
scalar RSUExampleScenario.node[63].veinsmobility 	totalCO2Emission 	708.4551718351
scalar RSUExampleScenario.node[64].veinsmobility 	startTime 	192.1
scalar RSUExampleScenario.node[64].veinsmobility 	totalTime 	287.5
scalar RSUExampleScenario.node[64].veinsmobility 	stopTime 	479.7
scalar RSUExampleScenario.node[64].veinsmobility 	minSpeed 	0.25681914165756
scalar RSUExampleScenario.node[64].veinsmobility 	maxSpeed 	13.999740105835
scalar RSUExampleScenario.node[64].veinsmobility 	totalDistance 	3409.4395500496
scalar RSUExampleScenario.node[64].veinsmobility 	totalCO2Emission 	710.5014720503
scalar RSUExampleScenario.node[65].veinsmobility 	startTime 	195.1
scalar RSUExampleScenario.node[65].veinsmobility 	totalTime 	288.2
scalar RSUExampleScenario.node[65].veinsmobility 	stopTime 	483.4
scalar RSUExampleScenario.node[65].veinsmobility 	minSpeed 	0.25896354367468
scalar RSUExampleScenario.node[65].veinsmobility 	maxSpeed 	13.999995092077
scalar RSUExampleScenario.node[65].veinsmobility 	totalDistance 	3413.7355234335
scalar RSUExampleScenario.node[65].veinsmobility 	totalCO2Emission 	709.61413285396
scalar RSUExampleScenario.node[66].veinsmobility 	startTime 	198.1
scalar RSUExampleScenario.node[66].veinsmobility 	totalTime 	288.8
scalar RSUExampleScenario.node[66].veinsmobility 	stopTime 	487
scalar RSUExampleScenario.node[66].veinsmobility 	minSpeed 	0.25805447917548
scalar RSUExampleScenario.node[66].veinsmobility 	maxSpeed 	13.999960595111
scalar RSUExampleScenario.node[66].veinsmobility 	totalDistance 	3409.5907826224
scalar RSUExampleScenario.node[66].veinsmobility 	totalCO2Emission 	710.66620402723
scalar RSUExampleScenario.node[67].veinsmobility 	startTime 	201.1
scalar RSUExampleScenario.node[67].veinsmobility 	totalTime 	289.6
scalar RSUExampleScenario.node[67].veinsmobility 	stopTime 	490.8
scalar RSUExampleScenario.node[67].veinsmobility 	minSpeed 	0.25905059094215
scalar RSUExampleScenario.node[67].veinsmobility 	maxSpeed 	13.999789535904
scalar RSUExampleScenario.node[67].veinsmobility 	totalDistance 	3414.2596452793
scalar RSUExampleScenario.node[67].veinsmobility 	totalCO2Emission 	707.09560237545
scalar RSUExampleScenario.node[68].veinsmobility 	startTime 	204.1
scalar RSUExampleScenario.node[68].veinsmobility 	totalTime 	290.2
scalar RSUExampleScenario.node[68].veinsmobility 	stopTime 	494.4
scalar RSUExampleScenario.node[68].veinsmobility 	minSpeed 	0.25471613012138
scalar RSUExampleScenario.node[68].veinsmobility 	maxSpeed 	13.999937640114
scalar RSUExampleScenario.node[68].veinsmobility 	totalDistance 	3409.5505778651
scalar RSUExampleScenario.node[68].veinsmobility 	totalCO2Emission 	712.93295611211
scalar RSUExampleScenario.node[69].veinsmobility 	startTime 	207.1
scalar RSUExampleScenario.node[69].veinsmobility 	totalTime 	290.8
scalar RSUExampleScenario.node[69].veinsmobility 	stopTime 	498
scalar RSUExampleScenario.node[69].veinsmobility 	minSpeed 	0.25805341254082
scalar RSUExampleScenario.node[69].veinsmobility 	maxSpeed 	13.999829602723
scalar RSUExampleScenario.node[69].veinsmobility 	totalDistance 	3413.8230221111
scalar RSUExampleScenario.node[69].veinsmobility 	totalCO2Emission 	714.74016343737
scalar RSUExampleScenario.node[70].veinsmobility 	startTime 	210.1
scalar RSUExampleScenario.node[70].veinsmobility 	totalTime 	291.4
scalar RSUExampleScenario.node[70].veinsmobility 	stopTime 	501.6
scalar RSUExampleScenario.node[70].veinsmobility 	minSpeed 	0.25338164153858
scalar RSUExampleScenario.node[70].veinsmobility 	maxSpeed 	13.999811432429
scalar RSUExampleScenario.node[70].veinsmobility 	totalDistance 	3409.4675832885
scalar RSUExampleScenario.node[70].veinsmobility 	totalCO2Emission 	714.46437701407
scalar RSUExampleScenario.node[71].veinsmobility 	startTime 	213.1
scalar RSUExampleScenario.node[71].veinsmobility 	totalTime 	292.1
scalar RSUExampleScenario.node[71].veinsmobility 	stopTime 	505.3
scalar RSUExampleScenario.node[71].veinsmobility 	minSpeed 	0.24863342544739
scalar RSUExampleScenario.node[71].veinsmobility 	maxSpeed 	13.999867776674
scalar RSUExampleScenario.node[71].veinsmobility 	totalDistance 	3413.7003031861
scalar RSUExampleScenario.node[71].veinsmobility 	totalCO2Emission 	712.6255547219
scalar RSUExampleScenario.node[72].veinsmobility 	startTime 	216.1
scalar RSUExampleScenario.node[72].veinsmobility 	totalTime 	292.9
scalar RSUExampleScenario.node[72].veinsmobility 	stopTime 	509.1
scalar RSUExampleScenario.node[72].veinsmobility 	minSpeed 	0.25036613274761
scalar RSUExampleScenario.node[72].veinsmobility 	maxSpeed 	13.99990781595
scalar RSUExampleScenario.node[72].veinsmobility 	totalDistance 	3410.1780518571
scalar RSUExampleScenario.node[72].veinsmobility 	totalCO2Emission 	716.44560418341
scalar RSUExampleScenario.node[73].veinsmobility 	startTime 	219.1
scalar RSUExampleScenario.node[73].veinsmobility 	totalTime 	293.6
scalar RSUExampleScenario.node[73].veinsmobility 	stopTime 	512.8
scalar RSUExampleScenario.node[73].veinsmobility 	minSpeed 	0.25967127059819
scalar RSUExampleScenario.node[73].veinsmobility 	maxSpeed 	13.999984609729
scalar RSUExampleScenario.node[73].veinsmobility 	totalDistance 	3414.1165140016
scalar RSUExampleScenario.node[73].veinsmobility 	totalCO2Emission 	715.37018913648
scalar RSUExampleScenario.node[74].veinsmobility 	startTime 	222.1
scalar RSUExampleScenario.node[74].veinsmobility 	totalTime 	294.1
scalar RSUExampleScenario.node[74].veinsmobility 	stopTime 	516.3
scalar RSUExampleScenario.node[74].veinsmobility 	minSpeed 	0.25032133695506
scalar RSUExampleScenario.node[74].veinsmobility 	maxSpeed 	13.99975111987
scalar RSUExampleScenario.node[74].veinsmobility 	totalDistance 	3409.3676978377
scalar RSUExampleScenario.node[74].veinsmobility 	totalCO2Emission 	718.54546179212
scalar RSUExampleScenario.node[75].veinsmobility 	startTime 	225.1
scalar RSUExampleScenario.node[75].veinsmobility 	totalTime 	294.8
scalar RSUExampleScenario.node[75].veinsmobility 	stopTime 	520
scalar RSUExampleScenario.node[75].veinsmobility 	minSpeed 	0.25701485472755
scalar RSUExampleScenario.node[75].veinsmobility 	maxSpeed 	13.999876554208
scalar RSUExampleScenario.node[75].veinsmobility 	totalDistance 	3414.1606089627
scalar RSUExampleScenario.node[75].veinsmobility 	totalCO2Emission 	717.7541833837
scalar RSUExampleScenario.node[76].veinsmobility 	startTime 	228.1
scalar RSUExampleScenario.node[76].veinsmobility 	totalTime 	295.4
scalar RSUExampleScenario.node[76].veinsmobility 	stopTime 	523.6
scalar RSUExampleScenario.node[76].veinsmobility 	minSpeed 	0.25040403847257
scalar RSUExampleScenario.node[76].veinsmobility 	maxSpeed 	13.999889377723
scalar RSUExampleScenario.node[76].veinsmobility 	totalDistance 	3409.65868276
scalar RSUExampleScenario.node[76].veinsmobility 	totalCO2Emission 	718.24389230936
scalar RSUExampleScenario.node[77].veinsmobility 	startTime 	231.1
scalar RSUExampleScenario.node[77].veinsmobility 	totalTime 	296.1
scalar RSUExampleScenario.node[77].veinsmobility 	stopTime 	527.3
scalar RSUExampleScenario.node[77].veinsmobility 	minSpeed 	0.25825399300223
scalar RSUExampleScenario.node[77].veinsmobility 	maxSpeed 	13.999981419484
scalar RSUExampleScenario.node[77].veinsmobility 	totalDistance 	3413.9798861192
scalar RSUExampleScenario.node[77].veinsmobility 	totalCO2Emission 	715.28949904207
scalar RSUExampleScenario.node[78].veinsmobility 	startTime 	234.1
scalar RSUExampleScenario.node[78].veinsmobility 	totalTime 	296.9
scalar RSUExampleScenario.node[78].veinsmobility 	stopTime 	531.1
scalar RSUExampleScenario.node[78].veinsmobility 	minSpeed 	0.25865831560665
scalar RSUExampleScenario.node[78].veinsmobility 	maxSpeed 	13.999864354273
scalar RSUExampleScenario.node[78].veinsmobility 	totalDistance 	3410.0431597522
scalar RSUExampleScenario.node[78].veinsmobility 	totalCO2Emission 	717.79787310839
scalar RSUExampleScenario.node[79].veinsmobility 	startTime 	237.1
scalar RSUExampleScenario.node[79].veinsmobility 	totalTime 	297.6
scalar RSUExampleScenario.node[79].veinsmobility 	stopTime 	534.8
scalar RSUExampleScenario.node[79].veinsmobility 	minSpeed 	0.2559110285053
scalar RSUExampleScenario.node[79].veinsmobility 	maxSpeed 	13.99999911115
scalar RSUExampleScenario.node[79].veinsmobility 	totalDistance 	3414.1285076892
scalar RSUExampleScenario.node[79].veinsmobility 	totalCO2Emission 	718.65287170165
scalar RSUExampleScenario.node[80].veinsmobility 	startTime 	240.1
scalar RSUExampleScenario.node[80].veinsmobility 	totalTime 	298.3
scalar RSUExampleScenario.node[80].veinsmobility 	stopTime 	538.5
scalar RSUExampleScenario.node[80].veinsmobility 	minSpeed 	0.25520747328782
scalar RSUExampleScenario.node[80].veinsmobility 	maxSpeed 	13.999959709712
scalar RSUExampleScenario.node[80].veinsmobility 	totalDistance 	3409.4391736125
scalar RSUExampleScenario.node[80].veinsmobility 	totalCO2Emission 	717.29631869446
scalar RSUExampleScenario.node[81].veinsmobility 	startTime 	243.1
scalar RSUExampleScenario.node[81].veinsmobility 	totalTime 	299
scalar RSUExampleScenario.node[81].veinsmobility 	stopTime 	542.2
scalar RSUExampleScenario.node[81].veinsmobility 	minSpeed 	0.2593751559779
scalar RSUExampleScenario.node[81].veinsmobility 	maxSpeed 	13.999947644076
scalar RSUExampleScenario.node[81].veinsmobility 	totalDistance 	3413.806705447
scalar RSUExampleScenario.node[81].veinsmobility 	totalCO2Emission 	717.72101181106
scalar RSUExampleScenario.node[82].veinsmobility 	startTime 	246.1
scalar RSUExampleScenario.node[82].veinsmobility 	totalTime 	299.8
scalar RSUExampleScenario.node[82].veinsmobility 	stopTime 	546
scalar RSUExampleScenario.node[82].veinsmobility 	minSpeed 	0.25321295834705
scalar RSUExampleScenario.node[82].veinsmobility 	maxSpeed 	13.999943427111
scalar RSUExampleScenario.node[82].veinsmobility 	totalDistance 	3410.1529750628
scalar RSUExampleScenario.node[82].veinsmobility 	totalCO2Emission 	720.80753658498
scalar RSUExampleScenario.node[83].veinsmobility 	startTime 	249.1
scalar RSUExampleScenario.node[83].veinsmobility 	totalTime 	300.5
scalar RSUExampleScenario.node[83].veinsmobility 	stopTime 	549.7
scalar RSUExampleScenario.node[83].veinsmobility 	minSpeed 	0.25292054305854
scalar RSUExampleScenario.node[83].veinsmobility 	maxSpeed 	13.999975757282
scalar RSUExampleScenario.node[83].veinsmobility 	totalDistance 	3414.2681350853
scalar RSUExampleScenario.node[83].veinsmobility 	totalCO2Emission 	727.24175902994
scalar RSUExampleScenario.node[84].veinsmobility 	startTime 	252.1
scalar RSUExampleScenario.node[84].veinsmobility 	totalTime 	301.3
scalar RSUExampleScenario.node[84].veinsmobility 	stopTime 	553.5
scalar RSUExampleScenario.node[84].veinsmobility 	minSpeed 	0.2478432500104
scalar RSUExampleScenario.node[84].veinsmobility 	maxSpeed 	13.999938581751
scalar RSUExampleScenario.node[84].veinsmobility 	totalDistance 	3410.2430763324
scalar RSUExampleScenario.node[84].veinsmobility 	totalCO2Emission 	726.55259927596
scalar RSUExampleScenario.node[85].veinsmobility 	startTime 	255.1
scalar RSUExampleScenario.node[85].veinsmobility 	totalTime 	302
scalar RSUExampleScenario.node[85].veinsmobility 	stopTime 	557.2
scalar RSUExampleScenario.node[85].veinsmobility 	minSpeed 	0.25048658132832
scalar RSUExampleScenario.node[85].veinsmobility 	maxSpeed 	13.999972626816
scalar RSUExampleScenario.node[85].veinsmobility 	totalDistance 	3413.9579459388
scalar RSUExampleScenario.node[85].veinsmobility 	totalCO2Emission 	721.81681895638
scalar RSUExampleScenario.node[86].veinsmobility 	startTime 	258.1
scalar RSUExampleScenario.node[86].veinsmobility 	totalTime 	302.7
scalar RSUExampleScenario.node[86].veinsmobility 	stopTime 	560.9
scalar RSUExampleScenario.node[86].veinsmobility 	minSpeed 	0.25889773127437
scalar RSUExampleScenario.node[86].veinsmobility 	maxSpeed 	13.999874979546
scalar RSUExampleScenario.node[86].veinsmobility 	totalDistance 	3410.0591586444
scalar RSUExampleScenario.node[86].veinsmobility 	totalCO2Emission 	727.13068800219
scalar RSUExampleScenario.node[87].veinsmobility 	startTime 	261.1
scalar RSUExampleScenario.node[87].veinsmobility 	totalTime 	303.4
scalar RSUExampleScenario.node[87].veinsmobility 	stopTime 	564.6
scalar RSUExampleScenario.node[87].veinsmobility 	minSpeed 	0.25425744922692
scalar RSUExampleScenario.node[87].veinsmobility 	maxSpeed 	13.999971561716
scalar RSUExampleScenario.node[87].veinsmobility 	totalDistance 	3414.0730100919
scalar RSUExampleScenario.node[87].veinsmobility 	totalCO2Emission 	725.31137434652
scalar RSUExampleScenario.node[88].veinsmobility 	startTime 	264.1
scalar RSUExampleScenario.node[88].veinsmobility 	totalTime 	304.1
scalar RSUExampleScenario.node[88].veinsmobility 	stopTime 	568.3
scalar RSUExampleScenario.node[88].veinsmobility 	minSpeed 	0.24818272001832
scalar RSUExampleScenario.node[88].veinsmobility 	maxSpeed 	13.999718042896
scalar RSUExampleScenario.node[88].veinsmobility 	totalDistance 	3409.5909806398
scalar RSUExampleScenario.node[88].veinsmobility 	totalCO2Emission 	721.08200097653
scalar RSUExampleScenario.node[89].veinsmobility 	startTime 	267.1
scalar RSUExampleScenario.node[89].veinsmobility 	totalTime 	304.7
scalar RSUExampleScenario.node[89].veinsmobility 	stopTime 	571.9
scalar RSUExampleScenario.node[89].veinsmobility 	minSpeed 	0.25184443611046
scalar RSUExampleScenario.node[89].veinsmobility 	maxSpeed 	13.999962100792
scalar RSUExampleScenario.node[89].veinsmobility 	totalDistance 	3413.5709971896
scalar RSUExampleScenario.node[89].veinsmobility 	totalCO2Emission 	721.85564042158
scalar RSUExampleScenario.node[90].veinsmobility 	startTime 	270.1
scalar RSUExampleScenario.node[90].veinsmobility 	totalTime 	305.4
scalar RSUExampleScenario.node[90].veinsmobility 	stopTime 	575.6
scalar RSUExampleScenario.node[90].veinsmobility 	minSpeed 	0.25330186839704
scalar RSUExampleScenario.node[90].veinsmobility 	maxSpeed 	13.999847389432
scalar RSUExampleScenario.node[90].veinsmobility 	totalDistance 	3409.7102136992
scalar RSUExampleScenario.node[90].veinsmobility 	totalCO2Emission 	728.92959667244
scalar RSUExampleScenario.node[91].veinsmobility 	startTime 	273.1
scalar RSUExampleScenario.node[91].veinsmobility 	totalTime 	306.2
scalar RSUExampleScenario.node[91].veinsmobility 	stopTime 	579.4
scalar RSUExampleScenario.node[91].veinsmobility 	minSpeed 	0.25374333273526
scalar RSUExampleScenario.node[91].veinsmobility 	maxSpeed 	13.999989321758
scalar RSUExampleScenario.node[91].veinsmobility 	totalDistance 	3414.1558119756
scalar RSUExampleScenario.node[91].veinsmobility 	totalCO2Emission 	724.55328849136
scalar RSUExampleScenario.node[92].veinsmobility 	startTime 	276.1
scalar RSUExampleScenario.node[92].veinsmobility 	totalTime 	306.9
scalar RSUExampleScenario.node[92].veinsmobility 	stopTime 	583.1
scalar RSUExampleScenario.node[92].veinsmobility 	minSpeed 	0.25447293388564
scalar RSUExampleScenario.node[92].veinsmobility 	maxSpeed 	13.99988376952
scalar RSUExampleScenario.node[92].veinsmobility 	totalDistance 	3410.0597576964
scalar RSUExampleScenario.node[92].veinsmobility 	totalCO2Emission 	730.51124034613
scalar RSUExampleScenario.node[93].veinsmobility 	startTime 	279.1
scalar RSUExampleScenario.node[93].veinsmobility 	totalTime 	307.6
scalar RSUExampleScenario.node[93].veinsmobility 	stopTime 	586.8
scalar RSUExampleScenario.node[93].veinsmobility 	minSpeed 	0.25868997659255
scalar RSUExampleScenario.node[93].veinsmobility 	maxSpeed 	13.9999239154
scalar RSUExampleScenario.node[93].veinsmobility 	totalDistance 	3409.7046517135
scalar RSUExampleScenario.node[93].veinsmobility 	totalCO2Emission 	732.44158229631
scalar RSUExampleScenario.node[94].veinsmobility 	startTime 	282.1
scalar RSUExampleScenario.node[94].veinsmobility 	totalTime 	308.2
scalar RSUExampleScenario.node[94].veinsmobility 	stopTime 	590.4
scalar RSUExampleScenario.node[94].veinsmobility 	minSpeed 	0.25968589132978
scalar RSUExampleScenario.node[94].veinsmobility 	maxSpeed 	13.999962913548
scalar RSUExampleScenario.node[94].veinsmobility 	totalDistance 	3413.8188479613
scalar RSUExampleScenario.node[94].veinsmobility 	totalCO2Emission 	727.37634184077
scalar RSUExampleScenario.node[95].veinsmobility 	startTime 	285.1
scalar RSUExampleScenario.node[95].veinsmobility 	totalTime 	308.9
scalar RSUExampleScenario.node[95].veinsmobility 	stopTime 	594.1
scalar RSUExampleScenario.node[95].veinsmobility 	minSpeed 	0.24933397475141
scalar RSUExampleScenario.node[95].veinsmobility 	maxSpeed 	13.999921783051
scalar RSUExampleScenario.node[95].veinsmobility 	totalDistance 	3410.071071501
scalar RSUExampleScenario.node[95].veinsmobility 	totalCO2Emission 	732.27187651628
scalar RSUExampleScenario.node[96].veinsmobility 	startTime 	288.1
scalar RSUExampleScenario.node[96].veinsmobility 	totalTime 	309.5
scalar RSUExampleScenario.node[96].veinsmobility 	stopTime 	597.7
scalar RSUExampleScenario.node[96].veinsmobility 	minSpeed 	0.24931147164968
scalar RSUExampleScenario.node[96].veinsmobility 	maxSpeed 	13.999915170101
scalar RSUExampleScenario.node[96].veinsmobility 	totalDistance 	3413.6621979525
scalar RSUExampleScenario.node[96].veinsmobility 	totalCO2Emission 	735.10271465341
scalar RSUExampleScenario.node[97].veinsmobility 	startTime 	291.1
scalar RSUExampleScenario.node[97].veinsmobility 	totalTime 	310.3
scalar RSUExampleScenario.node[97].veinsmobility 	stopTime 	601.5
scalar RSUExampleScenario.node[97].veinsmobility 	minSpeed 	0.25367235634755
scalar RSUExampleScenario.node[97].veinsmobility 	maxSpeed 	13.999983948404
scalar RSUExampleScenario.node[97].veinsmobility 	totalDistance 	3410.1016043953
scalar RSUExampleScenario.node[97].veinsmobility 	totalCO2Emission 	731.23012592016
scalar RSUExampleScenario.node[98].veinsmobility 	startTime 	294.1
scalar RSUExampleScenario.node[98].veinsmobility 	totalTime 	311.1
scalar RSUExampleScenario.node[98].veinsmobility 	stopTime 	605.3
scalar RSUExampleScenario.node[98].veinsmobility 	minSpeed 	0.25944031866989
scalar RSUExampleScenario.node[98].veinsmobility 	maxSpeed 	13.999894272359
scalar RSUExampleScenario.node[98].veinsmobility 	totalDistance 	3414.1729951872
scalar RSUExampleScenario.node[98].veinsmobility 	totalCO2Emission 	730.05836220741
scalar RSUExampleScenario.node[99].veinsmobility 	startTime 	297.1
scalar RSUExampleScenario.node[99].veinsmobility 	totalTime 	311.9
scalar RSUExampleScenario.node[99].veinsmobility 	stopTime 	609.1
scalar RSUExampleScenario.node[99].veinsmobility 	minSpeed 	0.25215805453015
scalar RSUExampleScenario.node[99].veinsmobility 	maxSpeed 	13.999988625958
scalar RSUExampleScenario.node[99].veinsmobility 	totalDistance 	3410.0876697647
scalar RSUExampleScenario.node[99].veinsmobility 	totalCO2Emission 	735.26740375083
scalar RSUExampleScenario.node[100].veinsmobility 	startTime 	300.1
scalar RSUExampleScenario.node[100].veinsmobility 	totalTime 	312.6
scalar RSUExampleScenario.node[100].veinsmobility 	stopTime 	612.8
scalar RSUExampleScenario.node[100].veinsmobility 	minSpeed 	0.25457156174723
scalar RSUExampleScenario.node[100].veinsmobility 	maxSpeed 	13.999952760001
scalar RSUExampleScenario.node[100].veinsmobility 	totalDistance 	3409.9699864831
scalar RSUExampleScenario.node[100].veinsmobility 	totalCO2Emission 	737.02843081663
scalar RSUExampleScenario.node[101].veinsmobility 	startTime 	303.1
scalar RSUExampleScenario.node[101].veinsmobility 	totalTime 	313.4
scalar RSUExampleScenario.node[101].veinsmobility 	stopTime 	616.6
scalar RSUExampleScenario.node[101].veinsmobility 	minSpeed 	0.24921705041733
scalar RSUExampleScenario.node[101].veinsmobility 	maxSpeed 	13.999850149478
scalar RSUExampleScenario.node[101].veinsmobility 	totalDistance 	3414.0936424673
scalar RSUExampleScenario.node[101].veinsmobility 	totalCO2Emission 	731.1902946005
scalar RSUExampleScenario.node[102].veinsmobility 	startTime 	306.1
scalar RSUExampleScenario.node[102].veinsmobility 	totalTime 	314.1
scalar RSUExampleScenario.node[102].veinsmobility 	stopTime 	620.3
scalar RSUExampleScenario.node[102].veinsmobility 	minSpeed 	0.25972104969947
scalar RSUExampleScenario.node[102].veinsmobility 	maxSpeed 	13.999918747535
scalar RSUExampleScenario.node[102].veinsmobility 	totalDistance 	3409.7240093599
scalar RSUExampleScenario.node[102].veinsmobility 	totalCO2Emission 	736.75862418717
scalar RSUExampleScenario.node[103].veinsmobility 	startTime 	309.1
scalar RSUExampleScenario.node[103].veinsmobility 	totalTime 	314.8
scalar RSUExampleScenario.node[103].veinsmobility 	stopTime 	624
scalar RSUExampleScenario.node[103].veinsmobility 	minSpeed 	0.25030802354915
scalar RSUExampleScenario.node[103].veinsmobility 	maxSpeed 	13.999950728444
scalar RSUExampleScenario.node[103].veinsmobility 	totalDistance 	3413.7741339332
scalar RSUExampleScenario.node[103].veinsmobility 	totalCO2Emission 	734.60048307311
scalar RSUExampleScenario.node[104].veinsmobility 	startTime 	312.1
scalar RSUExampleScenario.node[104].veinsmobility 	totalTime 	315.5
scalar RSUExampleScenario.node[104].veinsmobility 	stopTime 	627.7
scalar RSUExampleScenario.node[104].veinsmobility 	minSpeed 	0.25885229425761
scalar RSUExampleScenario.node[104].veinsmobility 	maxSpeed 	13.999990086085
scalar RSUExampleScenario.node[104].veinsmobility 	totalDistance 	3409.9290733946
scalar RSUExampleScenario.node[104].veinsmobility 	totalCO2Emission 	739.1948376055
scalar RSUExampleScenario.node[105].veinsmobility 	startTime 	315.1
scalar RSUExampleScenario.node[105].veinsmobility 	totalTime 	316.2
scalar RSUExampleScenario.node[105].veinsmobility 	stopTime 	631.4
scalar RSUExampleScenario.node[105].veinsmobility 	minSpeed 	0.2550201147534
scalar RSUExampleScenario.node[105].veinsmobility 	maxSpeed 	13.99997542497
scalar RSUExampleScenario.node[105].veinsmobility 	totalDistance 	3413.9149265274
scalar RSUExampleScenario.node[105].veinsmobility 	totalCO2Emission 	737.98876138312
scalar RSUExampleScenario.node[106].veinsmobility 	startTime 	318.1
scalar RSUExampleScenario.node[106].veinsmobility 	totalTime 	316.9
scalar RSUExampleScenario.node[106].veinsmobility 	stopTime 	635.1
scalar RSUExampleScenario.node[106].veinsmobility 	minSpeed 	0.24813039930235
scalar RSUExampleScenario.node[106].veinsmobility 	maxSpeed 	13.999993592056
scalar RSUExampleScenario.node[106].veinsmobility 	totalDistance 	3410.1001530074
scalar RSUExampleScenario.node[106].veinsmobility 	totalCO2Emission 	741.24754870158
scalar RSUExampleScenario.node[107].veinsmobility 	startTime 	321.1
scalar RSUExampleScenario.node[107].veinsmobility 	totalTime 	317.7
scalar RSUExampleScenario.node[107].veinsmobility 	stopTime 	638.9
scalar RSUExampleScenario.node[107].veinsmobility 	minSpeed 	0.2531162571758
scalar RSUExampleScenario.node[107].veinsmobility 	maxSpeed 	13.999960273453
scalar RSUExampleScenario.node[107].veinsmobility 	totalDistance 	3409.754145005
scalar RSUExampleScenario.node[107].veinsmobility 	totalCO2Emission 	740.41985305287
scalar RSUExampleScenario.node[108].veinsmobility 	startTime 	324.1
scalar RSUExampleScenario.node[108].veinsmobility 	totalTime 	318.3
scalar RSUExampleScenario.node[108].veinsmobility 	stopTime 	642.5
scalar RSUExampleScenario.node[108].veinsmobility 	minSpeed 	0.25883962037181
scalar RSUExampleScenario.node[108].veinsmobility 	maxSpeed 	13.999940465358
scalar RSUExampleScenario.node[108].veinsmobility 	totalDistance 	3413.5593566617
scalar RSUExampleScenario.node[108].veinsmobility 	totalCO2Emission 	737.97892348367
scalar RSUExampleScenario.node[109].veinsmobility 	startTime 	327.1
scalar RSUExampleScenario.node[109].veinsmobility 	totalTime 	319
scalar RSUExampleScenario.node[109].veinsmobility 	stopTime 	646.2
scalar RSUExampleScenario.node[109].veinsmobility 	minSpeed 	0.25329227328883
scalar RSUExampleScenario.node[109].veinsmobility 	maxSpeed 	13.999967526358
scalar RSUExampleScenario.node[109].veinsmobility 	totalDistance 	3409.9038116149
scalar RSUExampleScenario.node[109].veinsmobility 	totalCO2Emission 	742.30888788402
scalar RSUExampleScenario.node[110].veinsmobility 	startTime 	330.1
scalar RSUExampleScenario.node[110].veinsmobility 	totalTime 	319.7
scalar RSUExampleScenario.node[110].veinsmobility 	stopTime 	649.9
scalar RSUExampleScenario.node[110].veinsmobility 	minSpeed 	0.25379686206998
scalar RSUExampleScenario.node[110].veinsmobility 	maxSpeed 	13.999830207357
scalar RSUExampleScenario.node[110].veinsmobility 	totalDistance 	3414.0595466882
scalar RSUExampleScenario.node[110].veinsmobility 	totalCO2Emission 	736.36591692351
scalar RSUExampleScenario.node[111].veinsmobility 	startTime 	333.1
scalar RSUExampleScenario.node[111].veinsmobility 	totalTime 	320.5
scalar RSUExampleScenario.node[111].veinsmobility 	stopTime 	653.7
scalar RSUExampleScenario.node[111].veinsmobility 	minSpeed 	0.2497492701658
scalar RSUExampleScenario.node[111].veinsmobility 	maxSpeed 	13.999928304621
scalar RSUExampleScenario.node[111].veinsmobility 	totalDistance 	3409.8582113146
scalar RSUExampleScenario.node[111].veinsmobility 	totalCO2Emission 	743.95359443903
scalar RSUExampleScenario.node[112].veinsmobility 	startTime 	336.1
scalar RSUExampleScenario.node[112].veinsmobility 	totalTime 	321.2
scalar RSUExampleScenario.node[112].veinsmobility 	stopTime 	657.4
scalar RSUExampleScenario.node[112].veinsmobility 	minSpeed 	0.25541351991403
scalar RSUExampleScenario.node[112].veinsmobility 	maxSpeed 	13.999952406441
scalar RSUExampleScenario.node[112].veinsmobility 	totalDistance 	3414.0283480725
scalar RSUExampleScenario.node[112].veinsmobility 	totalCO2Emission 	745.86882245334
scalar RSUExampleScenario.node[113].veinsmobility 	startTime 	339.1
scalar RSUExampleScenario.node[113].veinsmobility 	totalTime 	321.9
scalar RSUExampleScenario.node[113].veinsmobility 	stopTime 	661.1
scalar RSUExampleScenario.node[113].veinsmobility 	minSpeed 	0.24895388934691
scalar RSUExampleScenario.node[113].veinsmobility 	maxSpeed 	13.999833472001
scalar RSUExampleScenario.node[113].veinsmobility 	totalDistance 	3409.5965343925
scalar RSUExampleScenario.node[113].veinsmobility 	totalCO2Emission 	741.99528932222
scalar RSUExampleScenario.node[114].veinsmobility 	startTime 	342.1
scalar RSUExampleScenario.node[114].veinsmobility 	totalTime 	322.6
scalar RSUExampleScenario.node[114].veinsmobility 	stopTime 	664.8
scalar RSUExampleScenario.node[114].veinsmobility 	minSpeed 	0.25115531246783
scalar RSUExampleScenario.node[114].veinsmobility 	maxSpeed 	13.99995783909
scalar RSUExampleScenario.node[114].veinsmobility 	totalDistance 	3410.1406047795
scalar RSUExampleScenario.node[114].veinsmobility 	totalCO2Emission 	745.71474745953
scalar RSUExampleScenario.node[115].veinsmobility 	startTime 	345.1
scalar RSUExampleScenario.node[115].veinsmobility 	totalTime 	323.3
scalar RSUExampleScenario.node[115].veinsmobility 	stopTime 	668.5
scalar RSUExampleScenario.node[115].veinsmobility 	minSpeed 	0.25932145619509
scalar RSUExampleScenario.node[115].veinsmobility 	maxSpeed 	13.999915170798
scalar RSUExampleScenario.node[115].veinsmobility 	totalDistance 	3413.6505659692
scalar RSUExampleScenario.node[115].veinsmobility 	totalCO2Emission 	745.23234832057
scalar RSUExampleScenario.node[116].veinsmobility 	startTime 	348.1
scalar RSUExampleScenario.node[116].veinsmobility 	totalTime 	323.9
scalar RSUExampleScenario.node[116].veinsmobility 	stopTime 	672.1
scalar RSUExampleScenario.node[116].veinsmobility 	minSpeed 	0.2490655715568
scalar RSUExampleScenario.node[116].veinsmobility 	maxSpeed 	13.999882321863
scalar RSUExampleScenario.node[116].veinsmobility 	totalDistance 	3409.5928849029
scalar RSUExampleScenario.node[116].veinsmobility 	totalCO2Emission 	747.38724003791
scalar RSUExampleScenario.node[117].veinsmobility 	startTime 	351.1
scalar RSUExampleScenario.node[117].veinsmobility 	totalTime 	324.6
scalar RSUExampleScenario.node[117].veinsmobility 	stopTime 	675.8
scalar RSUExampleScenario.node[117].veinsmobility 	minSpeed 	0.25566171267955
scalar RSUExampleScenario.node[117].veinsmobility 	maxSpeed 	13.999987446747
scalar RSUExampleScenario.node[117].veinsmobility 	totalDistance 	3414.1872940782
scalar RSUExampleScenario.node[117].veinsmobility 	totalCO2Emission 	752.33100169799
scalar RSUExampleScenario.node[118].veinsmobility 	startTime 	354.1
scalar RSUExampleScenario.node[118].veinsmobility 	totalTime 	325.3
scalar RSUExampleScenario.node[118].veinsmobility 	stopTime 	679.5
scalar RSUExampleScenario.node[118].veinsmobility 	minSpeed 	0.25105139429541
scalar RSUExampleScenario.node[118].veinsmobility 	maxSpeed 	13.999977032049
scalar RSUExampleScenario.node[118].veinsmobility 	totalDistance 	3409.47797894
scalar RSUExampleScenario.node[118].veinsmobility 	totalCO2Emission 	748.64977992758
scalar RSUExampleScenario.node[119].veinsmobility 	startTime 	357.1
scalar RSUExampleScenario.node[119].veinsmobility 	totalTime 	326.1
scalar RSUExampleScenario.node[119].veinsmobility 	stopTime 	683.3
scalar RSUExampleScenario.node[119].veinsmobility 	minSpeed 	0.25288386772713
scalar RSUExampleScenario.node[119].veinsmobility 	maxSpeed 	13.999829454289
scalar RSUExampleScenario.node[119].veinsmobility 	totalDistance 	3410.0319860356
scalar RSUExampleScenario.node[119].veinsmobility 	totalCO2Emission 	747.84114603604
scalar RSUExampleScenario.node[120].veinsmobility 	startTime 	360.1
scalar RSUExampleScenario.node[120].veinsmobility 	totalTime 	326.7
scalar RSUExampleScenario.node[120].veinsmobility 	stopTime 	686.9
scalar RSUExampleScenario.node[120].veinsmobility 	minSpeed 	0.2516009906996
scalar RSUExampleScenario.node[120].veinsmobility 	maxSpeed 	13.999938230643
scalar RSUExampleScenario.node[120].veinsmobility 	totalDistance 	3413.6858834966
scalar RSUExampleScenario.node[120].veinsmobility 	totalCO2Emission 	748.00464288253
scalar RSUExampleScenario.node[121].veinsmobility 	startTime 	363.1
scalar RSUExampleScenario.node[121].veinsmobility 	totalTime 	327.4
scalar RSUExampleScenario.node[121].veinsmobility 	stopTime 	690.6
scalar RSUExampleScenario.node[121].veinsmobility 	minSpeed 	0.25423351234593
scalar RSUExampleScenario.node[121].veinsmobility 	maxSpeed 	13.999996107628
scalar RSUExampleScenario.node[121].veinsmobility 	totalDistance 	3409.7521802377
scalar RSUExampleScenario.node[121].veinsmobility 	totalCO2Emission 	749.39899480447
scalar RSUExampleScenario.node[122].veinsmobility 	startTime 	366.1
scalar RSUExampleScenario.node[122].veinsmobility 	totalTime 	328.1
scalar RSUExampleScenario.node[122].veinsmobility 	stopTime 	694.3
scalar RSUExampleScenario.node[122].veinsmobility 	minSpeed 	0.25048949187645
scalar RSUExampleScenario.node[122].veinsmobility 	maxSpeed 	13.999894770631
scalar RSUExampleScenario.node[122].veinsmobility 	totalDistance 	3413.7218273888
scalar RSUExampleScenario.node[122].veinsmobility 	totalCO2Emission 	749.95384586807
scalar RSUExampleScenario.node[123].veinsmobility 	startTime 	369.1
scalar RSUExampleScenario.node[123].veinsmobility 	totalTime 	328.8
scalar RSUExampleScenario.node[123].veinsmobility 	stopTime 	698
scalar RSUExampleScenario.node[123].veinsmobility 	minSpeed 	0.25011580057442
scalar RSUExampleScenario.node[123].veinsmobility 	maxSpeed 	13.999934383128
scalar RSUExampleScenario.node[123].veinsmobility 	totalDistance 	3409.7505981035
scalar RSUExampleScenario.node[123].veinsmobility 	totalCO2Emission 	753.02403979179
scalar RSUExampleScenario.node[124].veinsmobility 	startTime 	372.1
scalar RSUExampleScenario.node[124].veinsmobility 	totalTime 	329.5
scalar RSUExampleScenario.node[124].veinsmobility 	stopTime 	701.7
scalar RSUExampleScenario.node[124].veinsmobility 	minSpeed 	0.25354909064691
scalar RSUExampleScenario.node[124].veinsmobility 	maxSpeed 	13.999924637533
scalar RSUExampleScenario.node[124].veinsmobility 	totalDistance 	3414.2513360758
scalar RSUExampleScenario.node[124].veinsmobility 	totalCO2Emission 	754.96640622551
scalar RSUExampleScenario.node[125].veinsmobility 	startTime 	375.1
scalar RSUExampleScenario.node[125].veinsmobility 	totalTime 	330.1
scalar RSUExampleScenario.node[125].veinsmobility 	stopTime 	705.3
scalar RSUExampleScenario.node[125].veinsmobility 	minSpeed 	0.25993012479786
scalar RSUExampleScenario.node[125].veinsmobility 	maxSpeed 	13.99981671731
scalar RSUExampleScenario.node[125].veinsmobility 	totalDistance 	3409.5572328096
scalar RSUExampleScenario.node[125].veinsmobility 	totalCO2Emission 	751.56974966955
scalar RSUExampleScenario.node[126].veinsmobility 	startTime 	378.1
scalar RSUExampleScenario.node[126].veinsmobility 	totalTime 	330.8
scalar RSUExampleScenario.node[126].veinsmobility 	stopTime 	709
scalar RSUExampleScenario.node[126].veinsmobility 	minSpeed 	0.25337978756404
scalar RSUExampleScenario.node[126].veinsmobility 	maxSpeed 	13.999971330045
scalar RSUExampleScenario.node[126].veinsmobility 	totalDistance 	3414.2936561447
scalar RSUExampleScenario.node[126].veinsmobility 	totalCO2Emission 	754.34838492273
scalar RSUExampleScenario.node[127].veinsmobility 	startTime 	381.1
scalar RSUExampleScenario.node[127].veinsmobility 	totalTime 	331.5
scalar RSUExampleScenario.node[127].veinsmobility 	stopTime 	712.7
scalar RSUExampleScenario.node[127].veinsmobility 	minSpeed 	0.25185908348695
scalar RSUExampleScenario.node[127].veinsmobility 	maxSpeed 	13.999961254378
scalar RSUExampleScenario.node[127].veinsmobility 	totalDistance 	3409.749324509
scalar RSUExampleScenario.node[127].veinsmobility 	totalCO2Emission 	755.00574643433
scalar RSUExampleScenario.node[128].veinsmobility 	startTime 	384.1
scalar RSUExampleScenario.node[128].veinsmobility 	totalTime 	332.2
scalar RSUExampleScenario.node[128].veinsmobility 	stopTime 	716.4
scalar RSUExampleScenario.node[128].veinsmobility 	minSpeed 	0.24801113558304
scalar RSUExampleScenario.node[128].veinsmobility 	maxSpeed 	13.999791312453
scalar RSUExampleScenario.node[128].veinsmobility 	totalDistance 	3413.6365789271
scalar RSUExampleScenario.node[128].veinsmobility 	totalCO2Emission 	755.15477169257
scalar RSUExampleScenario.node[129].veinsmobility 	startTime 	387.1
scalar RSUExampleScenario.node[129].veinsmobility 	totalTime 	332.9
scalar RSUExampleScenario.node[129].veinsmobility 	stopTime 	720.1
scalar RSUExampleScenario.node[129].veinsmobility 	minSpeed 	0.25707035651477
scalar RSUExampleScenario.node[129].veinsmobility 	maxSpeed 	13.999909976237
scalar RSUExampleScenario.node[129].veinsmobility 	totalDistance 	3410.1990564801
scalar RSUExampleScenario.node[129].veinsmobility 	totalCO2Emission 	752.48949297826
scalar RSUExampleScenario.node[130].veinsmobility 	startTime 	390.1
scalar RSUExampleScenario.node[130].veinsmobility 	totalTime 	333.5
scalar RSUExampleScenario.node[130].veinsmobility 	stopTime 	723.7
scalar RSUExampleScenario.node[130].veinsmobility 	minSpeed 	0.2570565734799
scalar RSUExampleScenario.node[130].veinsmobility 	maxSpeed 	13.999935604229
scalar RSUExampleScenario.node[130].veinsmobility 	totalDistance 	3413.6882072439
scalar RSUExampleScenario.node[130].veinsmobility 	totalCO2Emission 	755.81355153821
scalar RSUExampleScenario.node[131].veinsmobility 	startTime 	393.1
scalar RSUExampleScenario.node[131].veinsmobility 	totalTime 	334.2
scalar RSUExampleScenario.node[131].veinsmobility 	stopTime 	727.4
scalar RSUExampleScenario.node[131].veinsmobility 	minSpeed 	0.24734585104068
scalar RSUExampleScenario.node[131].veinsmobility 	maxSpeed 	13.999992038915
scalar RSUExampleScenario.node[131].veinsmobility 	totalDistance 	3410.1103374188
scalar RSUExampleScenario.node[131].veinsmobility 	totalCO2Emission 	754.1955850527
scalar RSUExampleScenario.node[132].veinsmobility 	startTime 	396.1
scalar RSUExampleScenario.node[132].veinsmobility 	totalTime 	334.9
scalar RSUExampleScenario.node[132].veinsmobility 	stopTime 	731.1
scalar RSUExampleScenario.node[132].veinsmobility 	minSpeed 	0.25232605536026
scalar RSUExampleScenario.node[132].veinsmobility 	maxSpeed 	13.999714659238
scalar RSUExampleScenario.node[132].veinsmobility 	totalDistance 	3414.318607765
scalar RSUExampleScenario.node[132].veinsmobility 	totalCO2Emission 	756.90473863472
scalar RSUExampleScenario.node[133].veinsmobility 	startTime 	399.1
scalar RSUExampleScenario.node[133].veinsmobility 	totalTime 	335.5
scalar RSUExampleScenario.node[133].veinsmobility 	stopTime 	734.7
scalar RSUExampleScenario.node[133].veinsmobility 	minSpeed 	0.25825078534358
scalar RSUExampleScenario.node[133].veinsmobility 	maxSpeed 	13.99996799754
scalar RSUExampleScenario.node[133].veinsmobility 	totalDistance 	3409.6827321994
scalar RSUExampleScenario.node[133].veinsmobility 	totalCO2Emission 	757.78743830719
scalar RSUExampleScenario.node[134].veinsmobility 	startTime 	402.1
scalar RSUExampleScenario.node[134].veinsmobility 	totalTime 	336.2
scalar RSUExampleScenario.node[134].veinsmobility 	stopTime 	738.4
scalar RSUExampleScenario.node[134].veinsmobility 	minSpeed 	0.25425657011149
scalar RSUExampleScenario.node[134].veinsmobility 	maxSpeed 	13.999995938733
scalar RSUExampleScenario.node[134].veinsmobility 	totalDistance 	3413.740896334
scalar RSUExampleScenario.node[134].veinsmobility 	totalCO2Emission 	760.28188002643
scalar RSUExampleScenario.node[135].veinsmobility 	startTime 	405.1
scalar RSUExampleScenario.node[135].veinsmobility 	totalTime 	337
scalar RSUExampleScenario.node[135].veinsmobility 	stopTime 	742.2
scalar RSUExampleScenario.node[135].veinsmobility 	minSpeed 	0.2476835495634
scalar RSUExampleScenario.node[135].veinsmobility 	maxSpeed 	13.999993037092
scalar RSUExampleScenario.node[135].veinsmobility 	totalDistance 	3409.6898786061
scalar RSUExampleScenario.node[135].veinsmobility 	totalCO2Emission 	758.99340256042
scalar RSUExampleScenario.node[136].veinsmobility 	startTime 	408.1
scalar RSUExampleScenario.node[136].veinsmobility 	totalTime 	337.8
scalar RSUExampleScenario.node[136].veinsmobility 	stopTime 	746
scalar RSUExampleScenario.node[136].veinsmobility 	minSpeed 	0.25303056875616
scalar RSUExampleScenario.node[136].veinsmobility 	maxSpeed 	13.999941145661
scalar RSUExampleScenario.node[136].veinsmobility 	totalDistance 	3414.3622444316
scalar RSUExampleScenario.node[136].veinsmobility 	totalCO2Emission 	760.78995195112
scalar RSUExampleScenario.node[137].veinsmobility 	startTime 	411.1
scalar RSUExampleScenario.node[137].veinsmobility 	totalTime 	338.4
scalar RSUExampleScenario.node[137].veinsmobility 	stopTime 	749.6
scalar RSUExampleScenario.node[137].veinsmobility 	minSpeed 	0.25778766811918
scalar RSUExampleScenario.node[137].veinsmobility 	maxSpeed 	13.999901174337
scalar RSUExampleScenario.node[137].veinsmobility 	totalDistance 	3409.6151460726
scalar RSUExampleScenario.node[137].veinsmobility 	totalCO2Emission 	758.61338906792
scalar RSUExampleScenario.node[138].veinsmobility 	startTime 	414.1
scalar RSUExampleScenario.node[138].veinsmobility 	totalTime 	339
scalar RSUExampleScenario.node[138].veinsmobility 	stopTime 	753.2
scalar RSUExampleScenario.node[138].veinsmobility 	minSpeed 	0.25515086660418
scalar RSUExampleScenario.node[138].veinsmobility 	maxSpeed 	13.999851117691
scalar RSUExampleScenario.node[138].veinsmobility 	totalDistance 	3409.9159851418
scalar RSUExampleScenario.node[138].veinsmobility 	totalCO2Emission 	762.75965871059
scalar RSUExampleScenario.node[139].veinsmobility 	startTime 	417.1
scalar RSUExampleScenario.node[139].veinsmobility 	totalTime 	339.7
scalar RSUExampleScenario.node[139].veinsmobility 	stopTime 	756.9
scalar RSUExampleScenario.node[139].veinsmobility 	minSpeed 	0.25777558883582
scalar RSUExampleScenario.node[139].veinsmobility 	maxSpeed 	13.999937602098
scalar RSUExampleScenario.node[139].veinsmobility 	totalDistance 	3413.8830684549
scalar RSUExampleScenario.node[139].veinsmobility 	totalCO2Emission 	760.24593426833
scalar RSUExampleScenario.node[140].veinsmobility 	startTime 	420.1
scalar RSUExampleScenario.node[140].veinsmobility 	totalTime 	340.4
scalar RSUExampleScenario.node[140].veinsmobility 	stopTime 	760.6
scalar RSUExampleScenario.node[140].veinsmobility 	minSpeed 	0.24964298276696
scalar RSUExampleScenario.node[140].veinsmobility 	maxSpeed 	13.999992544209
scalar RSUExampleScenario.node[140].veinsmobility 	totalDistance 	3410.1278234655
scalar RSUExampleScenario.node[140].veinsmobility 	totalCO2Emission 	761.7766250746
scalar RSUExampleScenario.node[141].veinsmobility 	startTime 	423.1
scalar RSUExampleScenario.node[141].veinsmobility 	totalTime 	341.2
scalar RSUExampleScenario.node[141].veinsmobility 	stopTime 	764.4
scalar RSUExampleScenario.node[141].veinsmobility 	minSpeed 	0.25554142493685
scalar RSUExampleScenario.node[141].veinsmobility 	maxSpeed 	13.999740010612
scalar RSUExampleScenario.node[141].veinsmobility 	totalDistance 	3414.2244957881
scalar RSUExampleScenario.node[141].veinsmobility 	totalCO2Emission 	764.39433554802
scalar RSUExampleScenario.node[142].veinsmobility 	startTime 	426.1
scalar RSUExampleScenario.node[142].veinsmobility 	totalTime 	341.8
scalar RSUExampleScenario.node[142].veinsmobility 	stopTime 	768
scalar RSUExampleScenario.node[142].veinsmobility 	minSpeed 	0.25712928474671
scalar RSUExampleScenario.node[142].veinsmobility 	maxSpeed 	13.999924458528
scalar RSUExampleScenario.node[142].veinsmobility 	totalDistance 	3409.6923539924
scalar RSUExampleScenario.node[142].veinsmobility 	totalCO2Emission 	758.88917802945
scalar RSUExampleScenario.node[143].veinsmobility 	startTime 	429.1
scalar RSUExampleScenario.node[143].veinsmobility 	totalTime 	342.5
scalar RSUExampleScenario.node[143].veinsmobility 	stopTime 	771.7
scalar RSUExampleScenario.node[143].veinsmobility 	minSpeed 	0.25314616659586
scalar RSUExampleScenario.node[143].veinsmobility 	maxSpeed 	13.999957674069
scalar RSUExampleScenario.node[143].veinsmobility 	totalDistance 	3414.1592985184
scalar RSUExampleScenario.node[143].veinsmobility 	totalCO2Emission 	766.28497957742
scalar RSUExampleScenario.node[144].veinsmobility 	startTime 	432.1
scalar RSUExampleScenario.node[144].veinsmobility 	totalTime 	343.2
scalar RSUExampleScenario.node[144].veinsmobility 	stopTime 	775.4
scalar RSUExampleScenario.node[144].veinsmobility 	minSpeed 	0.25367371863686
scalar RSUExampleScenario.node[144].veinsmobility 	maxSpeed 	13.999836590209
scalar RSUExampleScenario.node[144].veinsmobility 	totalDistance 	3409.9716006467
scalar RSUExampleScenario.node[144].veinsmobility 	totalCO2Emission 	762.02626084454
scalar RSUExampleScenario.node[145].veinsmobility 	startTime 	435.1
scalar RSUExampleScenario.node[145].veinsmobility 	totalTime 	343.9
scalar RSUExampleScenario.node[145].veinsmobility 	stopTime 	779.1
scalar RSUExampleScenario.node[145].veinsmobility 	minSpeed 	0.25272405864228
scalar RSUExampleScenario.node[145].veinsmobility 	maxSpeed 	13.999954000141
scalar RSUExampleScenario.node[145].veinsmobility 	totalDistance 	3414.171026671
scalar RSUExampleScenario.node[145].veinsmobility 	totalCO2Emission 	765.90869083759
scalar RSUExampleScenario.node[146].veinsmobility 	startTime 	438.1
scalar RSUExampleScenario.node[146].veinsmobility 	totalTime 	344.6
scalar RSUExampleScenario.node[146].veinsmobility 	stopTime 	782.8
scalar RSUExampleScenario.node[146].veinsmobility 	minSpeed 	0.24768501588074
scalar RSUExampleScenario.node[146].veinsmobility 	maxSpeed 	13.999980970761
scalar RSUExampleScenario.node[146].veinsmobility 	totalDistance 	3410.1004227806
scalar RSUExampleScenario.node[146].veinsmobility 	totalCO2Emission 	763.87238232488
scalar RSUExampleScenario.node[147].veinsmobility 	startTime 	441.1
scalar RSUExampleScenario.node[147].veinsmobility 	totalTime 	345.3
scalar RSUExampleScenario.node[147].veinsmobility 	stopTime 	786.5
scalar RSUExampleScenario.node[147].veinsmobility 	minSpeed 	0.25132596767601
scalar RSUExampleScenario.node[147].veinsmobility 	maxSpeed 	13.999940825123
scalar RSUExampleScenario.node[147].veinsmobility 	totalDistance 	3413.8826570128
scalar RSUExampleScenario.node[147].veinsmobility 	totalCO2Emission 	762.94916191972
scalar RSUExampleScenario.node[148].veinsmobility 	startTime 	444.1
scalar RSUExampleScenario.node[148].veinsmobility 	totalTime 	346
scalar RSUExampleScenario.node[148].veinsmobility 	stopTime 	790.2
scalar RSUExampleScenario.node[148].veinsmobility 	minSpeed 	0.24721451343782
scalar RSUExampleScenario.node[148].veinsmobility 	maxSpeed 	13.999951303657
scalar RSUExampleScenario.node[148].veinsmobility 	totalDistance 	3409.650139433
scalar RSUExampleScenario.node[148].veinsmobility 	totalCO2Emission 	767.2181229086
scalar RSUExampleScenario.node[149].veinsmobility 	startTime 	447.1
scalar RSUExampleScenario.node[149].veinsmobility 	totalTime 	346.7
scalar RSUExampleScenario.node[149].veinsmobility 	stopTime 	793.9
scalar RSUExampleScenario.node[149].veinsmobility 	minSpeed 	0.25543636397854
scalar RSUExampleScenario.node[149].veinsmobility 	maxSpeed 	13.999938337882
scalar RSUExampleScenario.node[149].veinsmobility 	totalDistance 	3414.3753588511
scalar RSUExampleScenario.node[149].veinsmobility 	totalCO2Emission 	769.0050351389
scalar RSUExampleScenario.node[150].veinsmobility 	startTime 	450.1
scalar RSUExampleScenario.node[150].veinsmobility 	totalTime 	347.4
scalar RSUExampleScenario.node[150].veinsmobility 	stopTime 	797.6
scalar RSUExampleScenario.node[150].veinsmobility 	minSpeed 	0.25834421990323
scalar RSUExampleScenario.node[150].veinsmobility 	maxSpeed 	13.999952123223
scalar RSUExampleScenario.node[150].veinsmobility 	totalDistance 	3409.7669024877
scalar RSUExampleScenario.node[150].veinsmobility 	totalCO2Emission 	769.88801559181
scalar RSUExampleScenario.node[151].veinsmobility 	startTime 	453.1
scalar RSUExampleScenario.node[151].veinsmobility 	totalTime 	348.1
scalar RSUExampleScenario.node[151].veinsmobility 	stopTime 	801.3
scalar RSUExampleScenario.node[151].veinsmobility 	minSpeed 	0.25614659414906
scalar RSUExampleScenario.node[151].veinsmobility 	maxSpeed 	13.999991259575
scalar RSUExampleScenario.node[151].veinsmobility 	totalDistance 	3413.9353612789
scalar RSUExampleScenario.node[151].veinsmobility 	totalCO2Emission 	767.47993710467
scalar RSUExampleScenario.node[152].veinsmobility 	startTime 	456.1
scalar RSUExampleScenario.node[152].veinsmobility 	totalTime 	348.8
scalar RSUExampleScenario.node[152].veinsmobility 	stopTime 	805
scalar RSUExampleScenario.node[152].veinsmobility 	minSpeed 	0.25144100031257
scalar RSUExampleScenario.node[152].veinsmobility 	maxSpeed 	13.999975476516
scalar RSUExampleScenario.node[152].veinsmobility 	totalDistance 	3410.222545326
scalar RSUExampleScenario.node[152].veinsmobility 	totalCO2Emission 	772.20624586157
[...]
scalar RSUExampleScenario.node[628].veinsmobility 	totalCO2Emission 	325.52554765336
scalar RSUExampleScenario.node[629].veinsmobility 	startTime 	1887.1
scalar RSUExampleScenario.node[629].veinsmobility 	totalTime 	112.8
scalar RSUExampleScenario.node[629].veinsmobility 	stopTime 	2000
scalar RSUExampleScenario.node[629].veinsmobility 	minSpeed 	0.25337122150068
scalar RSUExampleScenario.node[629].veinsmobility 	maxSpeed 	13.999915754667
scalar RSUExampleScenario.node[629].veinsmobility 	totalDistance 	1359.4595167201
scalar RSUExampleScenario.node[629].veinsmobility 	totalCO2Emission 	317.27774588509
scalar RSUExampleScenario.node[630].veinsmobility 	startTime 	1890.1
scalar RSUExampleScenario.node[630].veinsmobility 	totalTime 	109.8
scalar RSUExampleScenario.node[630].veinsmobility 	stopTime 	2000
scalar RSUExampleScenario.node[630].veinsmobility 	minSpeed 	0.24750840156036
scalar RSUExampleScenario.node[630].veinsmobility 	maxSpeed 	13.999991218683
scalar RSUExampleScenario.node[630].veinsmobility 	totalDistance 	1319.9187033784
scalar RSUExampleScenario.node[630].veinsmobility 	totalCO2Emission 	311.87047071339
scalar RSUExampleScenario.node[631].veinsmobility 	startTime 	1893.1
scalar RSUExampleScenario.node[631].veinsmobility 	totalTime 	106.8
scalar RSUExampleScenario.node[631].veinsmobility 	stopTime 	2000
scalar RSUExampleScenario.node[631].veinsmobility 	minSpeed 	0.2586032503352
scalar RSUExampleScenario.node[631].veinsmobility 	maxSpeed 	13.999886293749
scalar RSUExampleScenario.node[631].veinsmobility 	totalDistance 	1280.1502752671
scalar RSUExampleScenario.node[631].veinsmobility 	totalCO2Emission 	301.28598125041
scalar RSUExampleScenario.node[632].veinsmobility 	startTime 	1896.1
scalar RSUExampleScenario.node[632].veinsmobility 	totalTime 	103.8
scalar RSUExampleScenario.node[632].veinsmobility 	stopTime 	2000
scalar RSUExampleScenario.node[632].veinsmobility 	minSpeed 	0.25714509465592
scalar RSUExampleScenario.node[632].veinsmobility 	maxSpeed 	13.999990885342
scalar RSUExampleScenario.node[632].veinsmobility 	totalDistance 	1236.4517402947
scalar RSUExampleScenario.node[632].veinsmobility 	totalCO2Emission 	294.08860025121
scalar RSUExampleScenario.node[633].veinsmobility 	startTime 	1899.1
scalar RSUExampleScenario.node[633].veinsmobility 	totalTime 	100.8
scalar RSUExampleScenario.node[633].veinsmobility 	stopTime 	2000
scalar RSUExampleScenario.node[633].veinsmobility 	minSpeed 	0.25290463125217
scalar RSUExampleScenario.node[633].veinsmobility 	maxSpeed 	13.999943251587
scalar RSUExampleScenario.node[633].veinsmobility 	totalDistance 	1194.0151110669
scalar RSUExampleScenario.node[633].veinsmobility 	totalCO2Emission 	289.23678825444
scalar RSUExampleScenario.node[634].veinsmobility 	startTime 	1902.1
scalar RSUExampleScenario.node[634].veinsmobility 	totalTime 	97.8
scalar RSUExampleScenario.node[634].veinsmobility 	stopTime 	2000
scalar RSUExampleScenario.node[634].veinsmobility 	minSpeed 	0.24803276573797
scalar RSUExampleScenario.node[634].veinsmobility 	maxSpeed 	13.999866441009
scalar RSUExampleScenario.node[634].veinsmobility 	totalDistance 	1153.8265651452
scalar RSUExampleScenario.node[634].veinsmobility 	totalCO2Emission 	280.18765498265
scalar RSUExampleScenario.node[635].veinsmobility 	startTime 	1905.1
scalar RSUExampleScenario.node[635].veinsmobility 	totalTime 	94.8
scalar RSUExampleScenario.node[635].veinsmobility 	stopTime 	2000
scalar RSUExampleScenario.node[635].veinsmobility 	minSpeed 	0.25089159794431
scalar RSUExampleScenario.node[635].veinsmobility 	maxSpeed 	13.999885104247
scalar RSUExampleScenario.node[635].veinsmobility 	totalDistance 	1111.8971475322
scalar RSUExampleScenario.node[635].veinsmobility 	totalCO2Emission 	274.59072120941
scalar RSUExampleScenario.node[636].veinsmobility 	startTime 	1908.1
scalar RSUExampleScenario.node[636].veinsmobility 	totalTime 	91.8
scalar RSUExampleScenario.node[636].veinsmobility 	stopTime 	2000
scalar RSUExampleScenario.node[636].veinsmobility 	minSpeed 	0.25620630836789
scalar RSUExampleScenario.node[636].veinsmobility 	maxSpeed 	13.999774235983
scalar RSUExampleScenario.node[636].veinsmobility 	totalDistance 	1066.8171750213
scalar RSUExampleScenario.node[636].veinsmobility 	totalCO2Emission 	267.74407142386
scalar RSUExampleScenario.node[637].veinsmobility 	startTime 	1911.1
scalar RSUExampleScenario.node[637].veinsmobility 	totalTime 	88.8
scalar RSUExampleScenario.node[637].veinsmobility 	stopTime 	2000
scalar RSUExampleScenario.node[637].veinsmobility 	minSpeed 	0.25724603093858
scalar RSUExampleScenario.node[637].veinsmobility 	maxSpeed 	13.999973307967
scalar RSUExampleScenario.node[637].veinsmobility 	totalDistance 	1025.5787158637
scalar RSUExampleScenario.node[637].veinsmobility 	totalCO2Emission 	261.31177669637
scalar RSUExampleScenario.node[638].veinsmobility 	startTime 	1914.1
scalar RSUExampleScenario.node[638].veinsmobility 	totalTime 	85.8
scalar RSUExampleScenario.node[638].veinsmobility 	stopTime 	2000
scalar RSUExampleScenario.node[638].veinsmobility 	minSpeed 	0.25577762948023
scalar RSUExampleScenario.node[638].veinsmobility 	maxSpeed 	13.999847282828
scalar RSUExampleScenario.node[638].veinsmobility 	totalDistance 	984.45329257411
scalar RSUExampleScenario.node[638].veinsmobility 	totalCO2Emission 	250.7453976333
scalar RSUExampleScenario.node[639].veinsmobility 	startTime 	1917.1
scalar RSUExampleScenario.node[639].veinsmobility 	totalTime 	82.8
scalar RSUExampleScenario.node[639].veinsmobility 	stopTime 	2000
scalar RSUExampleScenario.node[639].veinsmobility 	minSpeed 	0.24890523166838
scalar RSUExampleScenario.node[639].veinsmobility 	maxSpeed 	13.999937852807
scalar RSUExampleScenario.node[639].veinsmobility 	totalDistance 	952.55891487133
scalar RSUExampleScenario.node[639].veinsmobility 	totalCO2Emission 	230.76722989326
scalar RSUExampleScenario.node[640].veinsmobility 	startTime 	1920.1
scalar RSUExampleScenario.node[640].veinsmobility 	totalTime 	79.8
scalar RSUExampleScenario.node[640].veinsmobility 	stopTime 	2000
scalar RSUExampleScenario.node[640].veinsmobility 	minSpeed 	0.24967057520314
scalar RSUExampleScenario.node[640].veinsmobility 	maxSpeed 	13.999738493944
scalar RSUExampleScenario.node[640].veinsmobility 	totalDistance 	937.20656850622
scalar RSUExampleScenario.node[640].veinsmobility 	totalCO2Emission 	223.32931087143
scalar RSUExampleScenario.node[641].veinsmobility 	startTime 	1923.1
scalar RSUExampleScenario.node[641].veinsmobility 	totalTime 	76.8
scalar RSUExampleScenario.node[641].veinsmobility 	stopTime 	2000
scalar RSUExampleScenario.node[641].veinsmobility 	minSpeed 	0.25284270506119
scalar RSUExampleScenario.node[641].veinsmobility 	maxSpeed 	13.99986594086
scalar RSUExampleScenario.node[641].veinsmobility 	totalDistance 	913.66552039842
scalar RSUExampleScenario.node[641].veinsmobility 	totalCO2Emission 	219.07014644188
scalar RSUExampleScenario.node[642].veinsmobility 	startTime 	1926.1
scalar RSUExampleScenario.node[642].veinsmobility 	totalTime 	73.8
scalar RSUExampleScenario.node[642].veinsmobility 	stopTime 	2000
scalar RSUExampleScenario.node[642].veinsmobility 	minSpeed 	0.25760448407545
scalar RSUExampleScenario.node[642].veinsmobility 	maxSpeed 	13.999955651048
scalar RSUExampleScenario.node[642].veinsmobility 	totalDistance 	872.70202268606
scalar RSUExampleScenario.node[642].veinsmobility 	totalCO2Emission 	213.2871263535
scalar RSUExampleScenario.node[643].veinsmobility 	startTime 	1929.1
scalar RSUExampleScenario.node[643].veinsmobility 	totalTime 	70.8
scalar RSUExampleScenario.node[643].veinsmobility 	stopTime 	2000
scalar RSUExampleScenario.node[643].veinsmobility 	minSpeed 	0.24946325423731
scalar RSUExampleScenario.node[643].veinsmobility 	maxSpeed 	13.999881979078
scalar RSUExampleScenario.node[643].veinsmobility 	totalDistance 	833.18287524987
scalar RSUExampleScenario.node[643].veinsmobility 	totalCO2Emission 	206.39147809282
scalar RSUExampleScenario.node[644].veinsmobility 	startTime 	1932.1
scalar RSUExampleScenario.node[644].veinsmobility 	totalTime 	67.8
scalar RSUExampleScenario.node[644].veinsmobility 	stopTime 	2000
scalar RSUExampleScenario.node[644].veinsmobility 	minSpeed 	0.25861210058769
scalar RSUExampleScenario.node[644].veinsmobility 	maxSpeed 	13.999861204799
scalar RSUExampleScenario.node[644].veinsmobility 	totalDistance 	791.23073109642
scalar RSUExampleScenario.node[644].veinsmobility 	totalCO2Emission 	200.36443752054
scalar RSUExampleScenario.node[645].veinsmobility 	startTime 	1935.1
scalar RSUExampleScenario.node[645].veinsmobility 	totalTime 	64.8
scalar RSUExampleScenario.node[645].veinsmobility 	stopTime 	2000
scalar RSUExampleScenario.node[645].veinsmobility 	minSpeed 	0.25115193321696
scalar RSUExampleScenario.node[645].veinsmobility 	maxSpeed 	13.999964603197
scalar RSUExampleScenario.node[645].veinsmobility 	totalDistance 	748.07811910113
scalar RSUExampleScenario.node[645].veinsmobility 	totalCO2Emission 	193.1219217603
scalar RSUExampleScenario.node[646].veinsmobility 	startTime 	1938.1
scalar RSUExampleScenario.node[646].veinsmobility 	totalTime 	61.8
scalar RSUExampleScenario.node[646].veinsmobility 	stopTime 	2000
scalar RSUExampleScenario.node[646].veinsmobility 	minSpeed 	0.25430717345537
scalar RSUExampleScenario.node[646].veinsmobility 	maxSpeed 	13.999640213195
scalar RSUExampleScenario.node[646].veinsmobility 	totalDistance 	705.37572774897
scalar RSUExampleScenario.node[646].veinsmobility 	totalCO2Emission 	186.25857075741
scalar RSUExampleScenario.node[647].veinsmobility 	startTime 	1941.1
scalar RSUExampleScenario.node[647].veinsmobility 	totalTime 	58.8
scalar RSUExampleScenario.node[647].veinsmobility 	stopTime 	2000
scalar RSUExampleScenario.node[647].veinsmobility 	minSpeed 	0.25608718259796
scalar RSUExampleScenario.node[647].veinsmobility 	maxSpeed 	13.99925783912
scalar RSUExampleScenario.node[647].veinsmobility 	totalDistance 	665.64474165788
scalar RSUExampleScenario.node[647].veinsmobility 	totalCO2Emission 	178.59001403642
scalar RSUExampleScenario.node[648].veinsmobility 	startTime 	1944.1
scalar RSUExampleScenario.node[648].veinsmobility 	totalTime 	55.8
scalar RSUExampleScenario.node[648].veinsmobility 	stopTime 	2000
scalar RSUExampleScenario.node[648].veinsmobility 	minSpeed 	0.25769282555347
scalar RSUExampleScenario.node[648].veinsmobility 	maxSpeed 	13.998563363662
scalar RSUExampleScenario.node[648].veinsmobility 	totalDistance 	622.76704460813
scalar RSUExampleScenario.node[648].veinsmobility 	totalCO2Emission 	171.82801779832
scalar RSUExampleScenario.node[649].veinsmobility 	startTime 	1947.1
scalar RSUExampleScenario.node[649].veinsmobility 	totalTime 	52.8
scalar RSUExampleScenario.node[649].veinsmobility 	stopTime 	2000
scalar RSUExampleScenario.node[649].veinsmobility 	minSpeed 	0.25904663960217
scalar RSUExampleScenario.node[649].veinsmobility 	maxSpeed 	13.999124343086
scalar RSUExampleScenario.node[649].veinsmobility 	totalDistance 	581.02465504261
scalar RSUExampleScenario.node[649].veinsmobility 	totalCO2Emission 	164.98141786146
scalar RSUExampleScenario.node[650].veinsmobility 	startTime 	1950.1
scalar RSUExampleScenario.node[650].veinsmobility 	totalTime 	49.8
scalar RSUExampleScenario.node[650].veinsmobility 	stopTime 	2000
scalar RSUExampleScenario.node[650].veinsmobility 	minSpeed 	0.25851225515106
scalar RSUExampleScenario.node[650].veinsmobility 	maxSpeed 	13.999912421315
scalar RSUExampleScenario.node[650].veinsmobility 	totalDistance 	540.35301073543
scalar RSUExampleScenario.node[650].veinsmobility 	totalCO2Emission 	157.60869489309
scalar RSUExampleScenario.node[651].veinsmobility 	startTime 	1953.1
scalar RSUExampleScenario.node[651].veinsmobility 	totalTime 	46.8
scalar RSUExampleScenario.node[651].veinsmobility 	stopTime 	2000
scalar RSUExampleScenario.node[651].veinsmobility 	minSpeed 	0.25827572391019
scalar RSUExampleScenario.node[651].veinsmobility 	maxSpeed 	13.999858111986
scalar RSUExampleScenario.node[651].veinsmobility 	totalDistance 	497.84158646903
scalar RSUExampleScenario.node[651].veinsmobility 	totalCO2Emission 	150.06768292451
scalar RSUExampleScenario.node[652].veinsmobility 	startTime 	1956.1
scalar RSUExampleScenario.node[652].veinsmobility 	totalTime 	43.8
scalar RSUExampleScenario.node[652].veinsmobility 	stopTime 	2000
scalar RSUExampleScenario.node[652].veinsmobility 	minSpeed 	0.25535599708511
scalar RSUExampleScenario.node[652].veinsmobility 	maxSpeed 	13.999448769591
scalar RSUExampleScenario.node[652].veinsmobility 	totalDistance 	456.65510408332
scalar RSUExampleScenario.node[652].veinsmobility 	totalCO2Emission 	143.72078521253
scalar RSUExampleScenario.node[653].veinsmobility 	startTime 	1959.1
scalar RSUExampleScenario.node[653].veinsmobility 	totalTime 	40.8
scalar RSUExampleScenario.node[653].veinsmobility 	stopTime 	2000
scalar RSUExampleScenario.node[653].veinsmobility 	minSpeed 	0.25649604397733
scalar RSUExampleScenario.node[653].veinsmobility 	maxSpeed 	13.99992241096
scalar RSUExampleScenario.node[653].veinsmobility 	totalDistance 	411.63247707698
scalar RSUExampleScenario.node[653].veinsmobility 	totalCO2Emission 	137.79108648688
scalar RSUExampleScenario.node[654].veinsmobility 	startTime 	1962.1
scalar RSUExampleScenario.node[654].veinsmobility 	totalTime 	37.8
scalar RSUExampleScenario.node[654].veinsmobility 	stopTime 	2000
scalar RSUExampleScenario.node[654].veinsmobility 	minSpeed 	0.24776374269137
scalar RSUExampleScenario.node[654].veinsmobility 	maxSpeed 	13.998058933336
scalar RSUExampleScenario.node[654].veinsmobility 	totalDistance 	371.10757551362
scalar RSUExampleScenario.node[654].veinsmobility 	totalCO2Emission 	129.70291706905
scalar RSUExampleScenario.node[655].veinsmobility 	startTime 	1965.1
scalar RSUExampleScenario.node[655].veinsmobility 	totalTime 	34.8
scalar RSUExampleScenario.node[655].veinsmobility 	stopTime 	2000
scalar RSUExampleScenario.node[655].veinsmobility 	minSpeed 	0.25614875804959
scalar RSUExampleScenario.node[655].veinsmobility 	maxSpeed 	13.989346483108
scalar RSUExampleScenario.node[655].veinsmobility 	totalDistance 	329.54846562131
scalar RSUExampleScenario.node[655].veinsmobility 	totalCO2Emission 	121.4379624708
scalar RSUExampleScenario.node[656].veinsmobility 	startTime 	1968.1
scalar RSUExampleScenario.node[656].veinsmobility 	totalTime 	31.8
scalar RSUExampleScenario.node[656].veinsmobility 	stopTime 	2000
scalar RSUExampleScenario.node[656].veinsmobility 	minSpeed 	0.25279360651737
scalar RSUExampleScenario.node[656].veinsmobility 	maxSpeed 	13.992735086035
scalar RSUExampleScenario.node[656].veinsmobility 	totalDistance 	286.50984407859
scalar RSUExampleScenario.node[656].veinsmobility 	totalCO2Emission 	115.21424548908
scalar RSUExampleScenario.node[657].veinsmobility 	startTime 	1971.1
scalar RSUExampleScenario.node[657].veinsmobility 	totalTime 	28.8
scalar RSUExampleScenario.node[657].veinsmobility 	stopTime 	2000
scalar RSUExampleScenario.node[657].veinsmobility 	minSpeed 	0.25210152137955
scalar RSUExampleScenario.node[657].veinsmobility 	maxSpeed 	13.882779953629
scalar RSUExampleScenario.node[657].veinsmobility 	totalDistance 	248.74961410175
scalar RSUExampleScenario.node[657].veinsmobility 	totalCO2Emission 	98.173353704392
scalar RSUExampleScenario.node[658].veinsmobility 	startTime 	1974.1
scalar RSUExampleScenario.node[658].veinsmobility 	totalTime 	25.8
scalar RSUExampleScenario.node[658].veinsmobility 	stopTime 	2000
scalar RSUExampleScenario.node[658].veinsmobility 	minSpeed 	0.2513181869972
scalar RSUExampleScenario.node[658].veinsmobility 	maxSpeed 	13.888838641106
scalar RSUExampleScenario.node[658].veinsmobility 	totalDistance 	225.93248256212
scalar RSUExampleScenario.node[658].veinsmobility 	totalCO2Emission 	83.25065769833
scalar RSUExampleScenario.node[659].veinsmobility 	startTime 	1977.1
scalar RSUExampleScenario.node[659].veinsmobility 	totalTime 	22.8
scalar RSUExampleScenario.node[659].veinsmobility 	stopTime 	2000
scalar RSUExampleScenario.node[659].veinsmobility 	minSpeed 	0.25101258020406
scalar RSUExampleScenario.node[659].veinsmobility 	maxSpeed 	13.889518116931
scalar RSUExampleScenario.node[659].veinsmobility 	totalDistance 	208.40923902638
scalar RSUExampleScenario.node[659].veinsmobility 	totalCO2Emission 	78.412928946399
scalar RSUExampleScenario.node[660].veinsmobility 	startTime 	1980.1
scalar RSUExampleScenario.node[660].veinsmobility 	totalTime 	19.8
scalar RSUExampleScenario.node[660].veinsmobility 	stopTime 	2000
scalar RSUExampleScenario.node[660].veinsmobility 	minSpeed 	0.24814724832051
scalar RSUExampleScenario.node[660].veinsmobility 	maxSpeed 	13.888365080855
scalar RSUExampleScenario.node[660].veinsmobility 	totalDistance 	175.91543054801
scalar RSUExampleScenario.node[660].veinsmobility 	totalCO2Emission 	74.99625320318
scalar RSUExampleScenario.node[661].veinsmobility 	startTime 	1983.1
scalar RSUExampleScenario.node[661].veinsmobility 	totalTime 	16.8
scalar RSUExampleScenario.node[661].veinsmobility 	stopTime 	2000
scalar RSUExampleScenario.node[661].veinsmobility 	minSpeed 	0.24926628972543
scalar RSUExampleScenario.node[661].veinsmobility 	maxSpeed 	13.881484445881
scalar RSUExampleScenario.node[661].veinsmobility 	totalDistance 	136.61539215431
scalar RSUExampleScenario.node[661].veinsmobility 	totalCO2Emission 	56.896754489933
scalar RSUExampleScenario.node[662].veinsmobility 	startTime 	1986.1
scalar RSUExampleScenario.node[662].veinsmobility 	totalTime 	13.8
scalar RSUExampleScenario.node[662].veinsmobility 	stopTime 	2000
scalar RSUExampleScenario.node[662].veinsmobility 	minSpeed 	0.25136511117383
scalar RSUExampleScenario.node[662].veinsmobility 	maxSpeed 	13.881021211371
scalar RSUExampleScenario.node[662].veinsmobility 	totalDistance 	116.82732859432
scalar RSUExampleScenario.node[662].veinsmobility 	totalCO2Emission 	42.895272437648
scalar RSUExampleScenario.node[663].veinsmobility 	startTime 	1989.1
scalar RSUExampleScenario.node[663].veinsmobility 	totalTime 	10.8
scalar RSUExampleScenario.node[663].veinsmobility 	stopTime 	2000
scalar RSUExampleScenario.node[663].veinsmobility 	minSpeed 	0.25106557000591
scalar RSUExampleScenario.node[663].veinsmobility 	maxSpeed 	13.879872875337
scalar RSUExampleScenario.node[663].veinsmobility 	totalDistance 	96.491089585019
scalar RSUExampleScenario.node[663].veinsmobility 	totalCO2Emission 	39.438285092428
scalar RSUExampleScenario.node[664].veinsmobility 	startTime 	1992.1
scalar RSUExampleScenario.node[664].veinsmobility 	totalTime 	7.8
scalar RSUExampleScenario.node[664].veinsmobility 	stopTime 	2000
scalar RSUExampleScenario.node[664].veinsmobility 	minSpeed 	0.25774195545795
scalar RSUExampleScenario.node[664].veinsmobility 	maxSpeed 	13.878855813455
scalar RSUExampleScenario.node[664].veinsmobility 	totalDistance 	62.755179361142
scalar RSUExampleScenario.node[664].veinsmobility 	totalCO2Emission 	36.293724794013
scalar RSUExampleScenario.node[665].veinsmobility 	startTime 	1995.1
scalar RSUExampleScenario.node[665].veinsmobility 	totalTime 	4.8
scalar RSUExampleScenario.node[665].veinsmobility 	stopTime 	2000
scalar RSUExampleScenario.node[665].veinsmobility 	minSpeed 	0.25752869665227
scalar RSUExampleScenario.node[665].veinsmobility 	maxSpeed 	9.703649557027
scalar RSUExampleScenario.node[665].veinsmobility 	totalDistance 	23.974460416384
scalar RSUExampleScenario.node[665].veinsmobility 	totalCO2Emission 	18.051463098522
scalar RSUExampleScenario.node[666].veinsmobility 	startTime 	1998.1
scalar RSUExampleScenario.node[666].veinsmobility 	totalTime 	1.8
scalar RSUExampleScenario.node[666].veinsmobility 	stopTime 	2000
scalar RSUExampleScenario.node[666].veinsmobility 	minSpeed 	0.24828356500366
scalar RSUExampleScenario.node[666].veinsmobility 	maxSpeed 	4.1061567677715
scalar RSUExampleScenario.node[666].veinsmobility 	totalDistance 	4.044365924271
scalar RSUExampleScenario.node[666].veinsmobility 	totalCO2Emission 	4.2161746729761
