version 2
run statisticLeach-460-20150322-00:29:44-10624
attr c 19
attr configname statisticLeach
attr datetime 20150322-00:29:44
attr experiment statisticLeach
attr inifile omnetpp.ini
attr iterationvars "$p=1/10, $c=19"
attr iterationvars2 "$p=1/10, $c=19, $repetition=0"
attr measurement "$p=1/10, $c=19"
attr network RSUExampleScenario
attr p 1/10
attr processid 10624
attr repetition 0
attr replication #0
attr resultdir results
attr runnumber 460
attr seedset 460

scalar . 	c 	19
scalar RSUExampleScenario.node[0].appl 	meanClusterNodes 	0
scalar RSUExampleScenario.node[0].appl 	meanClusterHeadUtility 	0
scalar RSUExampleScenario.node[0].appl 	NumberofCH 	0.054054054054054
scalar RSUExampleScenario.node[0].appl 	NumberofON 	0
scalar RSUExampleScenario.node[0].appl 	NumberofFN 	0.94594594594595
scalar RSUExampleScenario.node[0].veinsmobility 	startTime 	0.1
scalar RSUExampleScenario.node[0].veinsmobility 	totalTime 	449.9
scalar RSUExampleScenario.node[0].veinsmobility 	stopTime 	450
scalar RSUExampleScenario.node[0].veinsmobility 	minSpeed 	0
scalar RSUExampleScenario.node[0].veinsmobility 	maxSpeed 	13.999978563609
scalar RSUExampleScenario.node[0].veinsmobility 	totalDistance 	3131.786117209
scalar RSUExampleScenario.node[0].veinsmobility 	totalCO2Emission 	838.42502261052
scalar RSUExampleScenario.node[1].appl 	meanClusterNodes 	0
scalar RSUExampleScenario.node[1].appl 	meanClusterHeadUtility 	0
scalar RSUExampleScenario.node[1].appl 	NumberofCH 	0.054054054054054
scalar RSUExampleScenario.node[1].appl 	NumberofON 	0
scalar RSUExampleScenario.node[1].appl 	NumberofFN 	0.94594594594595
scalar RSUExampleScenario.node[1].veinsmobility 	startTime 	2.5
scalar RSUExampleScenario.node[1].veinsmobility 	totalTime 	447.5
scalar RSUExampleScenario.node[1].veinsmobility 	stopTime 	450
scalar RSUExampleScenario.node[1].veinsmobility 	minSpeed 	0
scalar RSUExampleScenario.node[1].veinsmobility 	maxSpeed 	13.999948039104
scalar RSUExampleScenario.node[1].veinsmobility 	totalDistance 	3079.1398109506
scalar RSUExampleScenario.node[1].veinsmobility 	totalCO2Emission 	827.32079923224
scalar RSUExampleScenario.node[10].appl 	meanClusterNodes 	0
scalar RSUExampleScenario.node[10].appl 	meanClusterHeadUtility 	0
scalar RSUExampleScenario.node[10].appl 	NumberofCH 	0.10810810810811
scalar RSUExampleScenario.node[10].appl 	NumberofON 	0
scalar RSUExampleScenario.node[10].appl 	NumberofFN 	0.89189189189189
scalar RSUExampleScenario.node[10].veinsmobility 	startTime 	24.2
scalar RSUExampleScenario.node[10].veinsmobility 	totalTime 	425.8
scalar RSUExampleScenario.node[10].veinsmobility 	stopTime 	450
scalar RSUExampleScenario.node[10].veinsmobility 	minSpeed 	0
scalar RSUExampleScenario.node[10].veinsmobility 	maxSpeed 	13.999973544269
scalar RSUExampleScenario.node[10].veinsmobility 	totalDistance 	2790.8578535454
scalar RSUExampleScenario.node[10].veinsmobility 	totalCO2Emission 	759.19827598594
scalar RSUExampleScenario.node[11].appl 	meanClusterNodes 	0
scalar RSUExampleScenario.node[11].appl 	meanClusterHeadUtility 	0
scalar RSUExampleScenario.node[11].appl 	NumberofCH 	0.16216216216216
scalar RSUExampleScenario.node[11].appl 	NumberofON 	0
scalar RSUExampleScenario.node[11].appl 	NumberofFN 	0.83783783783784
scalar RSUExampleScenario.node[11].veinsmobility 	startTime 	26.6
scalar RSUExampleScenario.node[11].veinsmobility 	totalTime 	423.4
scalar RSUExampleScenario.node[11].veinsmobility 	stopTime 	450
scalar RSUExampleScenario.node[11].veinsmobility 	minSpeed 	0
scalar RSUExampleScenario.node[11].veinsmobility 	maxSpeed 	13.999989335712
scalar RSUExampleScenario.node[11].veinsmobility 	totalDistance 	2752.3365015152
scalar RSUExampleScenario.node[11].veinsmobility 	totalCO2Emission 	754.89815614224
scalar RSUExampleScenario.node[12].appl 	meanClusterNodes 	0
scalar RSUExampleScenario.node[12].appl 	meanClusterHeadUtility 	0
scalar RSUExampleScenario.node[12].appl 	NumberofCH 	0.054054054054054
scalar RSUExampleScenario.node[12].appl 	NumberofON 	0
scalar RSUExampleScenario.node[12].appl 	NumberofFN 	0.94594594594595
scalar RSUExampleScenario.node[12].veinsmobility 	startTime 	29
scalar RSUExampleScenario.node[12].veinsmobility 	totalTime 	421
scalar RSUExampleScenario.node[12].veinsmobility 	stopTime 	450
scalar RSUExampleScenario.node[12].veinsmobility 	minSpeed 	0
scalar RSUExampleScenario.node[12].veinsmobility 	maxSpeed 	13.99997629245
scalar RSUExampleScenario.node[12].veinsmobility 	totalDistance 	2722.3811771129
scalar RSUExampleScenario.node[12].veinsmobility 	totalCO2Emission 	751.26623405634
scalar RSUExampleScenario.node[13].appl 	meanClusterNodes 	0
scalar RSUExampleScenario.node[13].appl 	meanClusterHeadUtility 	0
scalar RSUExampleScenario.node[13].appl 	NumberofCH 	0.16216216216216
scalar RSUExampleScenario.node[13].appl 	NumberofON 	0
scalar RSUExampleScenario.node[13].appl 	NumberofFN 	0.83783783783784
scalar RSUExampleScenario.node[13].veinsmobility 	startTime 	31.4
scalar RSUExampleScenario.node[13].veinsmobility 	totalTime 	418.6
scalar RSUExampleScenario.node[13].veinsmobility 	stopTime 	450
scalar RSUExampleScenario.node[13].veinsmobility 	minSpeed 	0
scalar RSUExampleScenario.node[13].veinsmobility 	maxSpeed 	13.999902685466
scalar RSUExampleScenario.node[13].veinsmobility 	totalDistance 	2677.5530094472
scalar RSUExampleScenario.node[13].veinsmobility 	totalCO2Emission 	740.85323119135
scalar RSUExampleScenario.node[14].appl 	meanClusterNodes 	0
scalar RSUExampleScenario.node[14].appl 	meanClusterHeadUtility 	0
scalar RSUExampleScenario.node[14].appl 	NumberofCH 	0.10810810810811
scalar RSUExampleScenario.node[14].appl 	NumberofON 	0
scalar RSUExampleScenario.node[14].appl 	NumberofFN 	0.89189189189189
scalar RSUExampleScenario.node[14].veinsmobility 	startTime 	33.8
scalar RSUExampleScenario.node[14].veinsmobility 	totalTime 	416.2
scalar RSUExampleScenario.node[14].veinsmobility 	stopTime 	450
scalar RSUExampleScenario.node[14].veinsmobility 	minSpeed 	0
scalar RSUExampleScenario.node[14].veinsmobility 	maxSpeed 	13.999780260976
scalar RSUExampleScenario.node[14].veinsmobility 	totalDistance 	2649.1112274761
scalar RSUExampleScenario.node[14].veinsmobility 	totalCO2Emission 	737.16888073492
scalar RSUExampleScenario.node[15].appl 	meanClusterNodes 	0
scalar RSUExampleScenario.node[15].appl 	meanClusterHeadUtility 	0
scalar RSUExampleScenario.node[15].appl 	NumberofCH 	0.054054054054054
scalar RSUExampleScenario.node[15].appl 	NumberofON 	0
scalar RSUExampleScenario.node[15].appl 	NumberofFN 	0.94594594594595
scalar RSUExampleScenario.node[15].veinsmobility 	startTime 	36.2
scalar RSUExampleScenario.node[15].veinsmobility 	totalTime 	413.8
scalar RSUExampleScenario.node[15].veinsmobility 	stopTime 	450
scalar RSUExampleScenario.node[15].veinsmobility 	minSpeed 	0
scalar RSUExampleScenario.node[15].veinsmobility 	maxSpeed 	13.999873801607
scalar RSUExampleScenario.node[15].veinsmobility 	totalDistance 	2610.8918769296
scalar RSUExampleScenario.node[15].veinsmobility 	totalCO2Emission 	730.11018524454
scalar RSUExampleScenario.node[16].appl 	meanClusterNodes 	0
scalar RSUExampleScenario.node[16].appl 	meanClusterHeadUtility 	0
scalar RSUExampleScenario.node[16].appl 	NumberofCH 	0.054054054054054
scalar RSUExampleScenario.node[16].appl 	NumberofON 	0
scalar RSUExampleScenario.node[16].appl 	NumberofFN 	0.94594594594595
scalar RSUExampleScenario.node[16].veinsmobility 	startTime 	38.6
scalar RSUExampleScenario.node[16].veinsmobility 	totalTime 	411.4
scalar RSUExampleScenario.node[16].veinsmobility 	stopTime 	450
scalar RSUExampleScenario.node[16].veinsmobility 	minSpeed 	0
scalar RSUExampleScenario.node[16].veinsmobility 	maxSpeed 	13.999924943906
scalar RSUExampleScenario.node[16].veinsmobility 	totalDistance 	2579.4818178257
scalar RSUExampleScenario.node[16].veinsmobility 	totalCO2Emission 	723.81824404677
scalar RSUExampleScenario.node[17].appl 	meanClusterNodes 	0
scalar RSUExampleScenario.node[17].appl 	meanClusterHeadUtility 	0
scalar RSUExampleScenario.node[17].appl 	NumberofCH 	0.054054054054054
scalar RSUExampleScenario.node[17].appl 	NumberofON 	0
scalar RSUExampleScenario.node[17].appl 	NumberofFN 	0.94594594594595
scalar RSUExampleScenario.node[17].veinsmobility 	startTime 	41
scalar RSUExampleScenario.node[17].veinsmobility 	totalTime 	409
scalar RSUExampleScenario.node[17].veinsmobility 	stopTime 	450
scalar RSUExampleScenario.node[17].veinsmobility 	minSpeed 	0
scalar RSUExampleScenario.node[17].veinsmobility 	maxSpeed 	13.999912476433
scalar RSUExampleScenario.node[17].veinsmobility 	totalDistance 	2537.6089797536
scalar RSUExampleScenario.node[17].veinsmobility 	totalCO2Emission 	716.72834584465
scalar RSUExampleScenario.node[18].appl 	meanClusterNodes 	0
scalar RSUExampleScenario.node[18].appl 	meanClusterHeadUtility 	0
scalar RSUExampleScenario.node[18].appl 	NumberofCH 	0.081081081081081
scalar RSUExampleScenario.node[18].appl 	NumberofON 	0
scalar RSUExampleScenario.node[18].appl 	NumberofFN 	0.91891891891892
scalar RSUExampleScenario.node[18].veinsmobility 	startTime 	43.4
scalar RSUExampleScenario.node[18].veinsmobility 	totalTime 	406.6
scalar RSUExampleScenario.node[18].veinsmobility 	stopTime 	450
scalar RSUExampleScenario.node[18].veinsmobility 	minSpeed 	0
scalar RSUExampleScenario.node[18].veinsmobility 	maxSpeed 	13.999920613465
scalar RSUExampleScenario.node[18].veinsmobility 	totalDistance 	2508.3108106142
scalar RSUExampleScenario.node[18].veinsmobility 	totalCO2Emission 	713.00349362606
scalar RSUExampleScenario.node[19].appl 	meanClusterNodes 	0
scalar RSUExampleScenario.node[19].appl 	meanClusterHeadUtility 	0
scalar RSUExampleScenario.node[19].appl 	NumberofCH 	0.054054054054054
scalar RSUExampleScenario.node[19].appl 	NumberofON 	0
scalar RSUExampleScenario.node[19].appl 	NumberofFN 	0.94594594594595
scalar RSUExampleScenario.node[19].veinsmobility 	startTime 	45.8
scalar RSUExampleScenario.node[19].veinsmobility 	totalTime 	404.2
scalar RSUExampleScenario.node[19].veinsmobility 	stopTime 	450
scalar RSUExampleScenario.node[19].veinsmobility 	minSpeed 	0
scalar RSUExampleScenario.node[19].veinsmobility 	maxSpeed 	13.999979151231
scalar RSUExampleScenario.node[19].veinsmobility 	totalDistance 	2470.9079249468
scalar RSUExampleScenario.node[19].veinsmobility 	totalCO2Emission 	703.49850909572
scalar RSUExampleScenario.node[2].appl 	meanClusterNodes 	0
scalar RSUExampleScenario.node[2].appl 	meanClusterHeadUtility 	0
scalar RSUExampleScenario.node[2].appl 	NumberofCH 	0.054054054054054
scalar RSUExampleScenario.node[2].appl 	NumberofON 	0
scalar RSUExampleScenario.node[2].appl 	NumberofFN 	0.94594594594595
scalar RSUExampleScenario.node[2].veinsmobility 	startTime 	4.9
scalar RSUExampleScenario.node[2].veinsmobility 	totalTime 	445.1
scalar RSUExampleScenario.node[2].veinsmobility 	stopTime 	450
scalar RSUExampleScenario.node[2].veinsmobility 	minSpeed 	0
scalar RSUExampleScenario.node[2].veinsmobility 	maxSpeed 	13.999944331518
scalar RSUExampleScenario.node[2].veinsmobility 	totalDistance 	3037.5463335287
scalar RSUExampleScenario.node[2].veinsmobility 	totalCO2Emission 	825.08350035436
scalar RSUExampleScenario.node[20].appl 	meanClusterNodes 	0
scalar RSUExampleScenario.node[20].appl 	meanClusterHeadUtility 	0
scalar RSUExampleScenario.node[20].appl 	NumberofCH 	0.054054054054054
scalar RSUExampleScenario.node[20].appl 	NumberofON 	0
scalar RSUExampleScenario.node[20].appl 	NumberofFN 	0.94594594594595
scalar RSUExampleScenario.node[20].veinsmobility 	startTime 	48.3
scalar RSUExampleScenario.node[20].veinsmobility 	totalTime 	401.7
scalar RSUExampleScenario.node[20].veinsmobility 	stopTime 	450
scalar RSUExampleScenario.node[20].veinsmobility 	minSpeed 	0
scalar RSUExampleScenario.node[20].veinsmobility 	maxSpeed 	13.999979131648
scalar RSUExampleScenario.node[20].veinsmobility 	totalDistance 	2440.2899511265
scalar RSUExampleScenario.node[20].veinsmobility 	totalCO2Emission 	697.53872749503
scalar RSUExampleScenario.node[21].appl 	meanClusterNodes 	0
scalar RSUExampleScenario.node[21].appl 	meanClusterHeadUtility 	0
scalar RSUExampleScenario.node[21].appl 	NumberofCH 	0.16216216216216
scalar RSUExampleScenario.node[21].appl 	NumberofON 	0
scalar RSUExampleScenario.node[21].appl 	NumberofFN 	0.83783783783784
scalar RSUExampleScenario.node[21].veinsmobility 	startTime 	50.7
scalar RSUExampleScenario.node[21].veinsmobility 	totalTime 	399.3
scalar RSUExampleScenario.node[21].veinsmobility 	stopTime 	450
scalar RSUExampleScenario.node[21].veinsmobility 	minSpeed 	0
scalar RSUExampleScenario.node[21].veinsmobility 	maxSpeed 	13.999956991223
scalar RSUExampleScenario.node[21].veinsmobility 	totalDistance 	2402.278878137
scalar RSUExampleScenario.node[21].veinsmobility 	totalCO2Emission 	695.86068722793
scalar RSUExampleScenario.node[22].appl 	meanClusterNodes 	0
scalar RSUExampleScenario.node[22].appl 	meanClusterHeadUtility 	0
scalar RSUExampleScenario.node[22].appl 	NumberofCH 	0.10810810810811
scalar RSUExampleScenario.node[22].appl 	NumberofON 	0
scalar RSUExampleScenario.node[22].appl 	NumberofFN 	0.89189189189189
scalar RSUExampleScenario.node[22].veinsmobility 	startTime 	53.1
scalar RSUExampleScenario.node[22].veinsmobility 	totalTime 	396.9
scalar RSUExampleScenario.node[22].veinsmobility 	stopTime 	450
scalar RSUExampleScenario.node[22].veinsmobility 	minSpeed 	0
scalar RSUExampleScenario.node[22].veinsmobility 	maxSpeed 	13.999986757
scalar RSUExampleScenario.node[22].veinsmobility 	totalDistance 	2373.2916478779
scalar RSUExampleScenario.node[22].veinsmobility 	totalCO2Emission 	687.67394876672
scalar RSUExampleScenario.node[23].appl 	meanClusterNodes 	0
scalar RSUExampleScenario.node[23].appl 	meanClusterHeadUtility 	0
scalar RSUExampleScenario.node[23].appl 	NumberofCH 	0.054054054054054
scalar RSUExampleScenario.node[23].appl 	NumberofON 	0
scalar RSUExampleScenario.node[23].appl 	NumberofFN 	0.94594594594595
scalar RSUExampleScenario.node[23].veinsmobility 	startTime 	55.5
scalar RSUExampleScenario.node[23].veinsmobility 	totalTime 	394.5
scalar RSUExampleScenario.node[23].veinsmobility 	stopTime 	450
scalar RSUExampleScenario.node[23].veinsmobility 	minSpeed 	0
scalar RSUExampleScenario.node[23].veinsmobility 	maxSpeed 	13.999942631002
scalar RSUExampleScenario.node[23].veinsmobility 	totalDistance 	2333.2299741665
scalar RSUExampleScenario.node[23].veinsmobility 	totalCO2Emission 	683.2505954248
scalar RSUExampleScenario.node[24].appl 	meanClusterNodes 	0
scalar RSUExampleScenario.node[24].appl 	meanClusterHeadUtility 	0
scalar RSUExampleScenario.node[24].appl 	NumberofCH 	0.10810810810811
scalar RSUExampleScenario.node[24].appl 	NumberofON 	0
scalar RSUExampleScenario.node[24].appl 	NumberofFN 	0.89189189189189
scalar RSUExampleScenario.node[24].veinsmobility 	startTime 	57.9
scalar RSUExampleScenario.node[24].veinsmobility 	totalTime 	392.1
scalar RSUExampleScenario.node[24].veinsmobility 	stopTime 	450
scalar RSUExampleScenario.node[24].veinsmobility 	minSpeed 	0
scalar RSUExampleScenario.node[24].veinsmobility 	maxSpeed 	13.999952195988
scalar RSUExampleScenario.node[24].veinsmobility 	totalDistance 	2304.3483440829
scalar RSUExampleScenario.node[24].veinsmobility 	totalCO2Emission 	679.17303206782
scalar RSUExampleScenario.node[25].appl 	meanClusterNodes 	0
scalar RSUExampleScenario.node[25].appl 	meanClusterHeadUtility 	0
scalar RSUExampleScenario.node[25].appl 	NumberofCH 	0.10810810810811
scalar RSUExampleScenario.node[25].appl 	NumberofON 	0
scalar RSUExampleScenario.node[25].appl 	NumberofFN 	0.89189189189189
scalar RSUExampleScenario.node[25].veinsmobility 	startTime 	60.3
scalar RSUExampleScenario.node[25].veinsmobility 	totalTime 	389.7
scalar RSUExampleScenario.node[25].veinsmobility 	stopTime 	450
scalar RSUExampleScenario.node[25].veinsmobility 	minSpeed 	0
scalar RSUExampleScenario.node[25].veinsmobility 	maxSpeed 	13.999706305517
scalar RSUExampleScenario.node[25].veinsmobility 	totalDistance 	2266.4208623977
scalar RSUExampleScenario.node[25].veinsmobility 	totalCO2Emission 	672.41392236219
scalar RSUExampleScenario.node[26].appl 	meanClusterNodes 	0
scalar RSUExampleScenario.node[26].appl 	meanClusterHeadUtility 	0
scalar RSUExampleScenario.node[26].appl 	NumberofCH 	0.10810810810811
scalar RSUExampleScenario.node[26].appl 	NumberofON 	0
scalar RSUExampleScenario.node[26].appl 	NumberofFN 	0.89189189189189
scalar RSUExampleScenario.node[26].veinsmobility 	startTime 	62.7
scalar RSUExampleScenario.node[26].veinsmobility 	totalTime 	387.3
scalar RSUExampleScenario.node[26].veinsmobility 	stopTime 	450
scalar RSUExampleScenario.node[26].veinsmobility 	minSpeed 	0
scalar RSUExampleScenario.node[26].veinsmobility 	maxSpeed 	13.999908724837
scalar RSUExampleScenario.node[26].veinsmobility 	totalDistance 	2238.8834794289
scalar RSUExampleScenario.node[26].veinsmobility 	totalCO2Emission 	670.13383027674
scalar RSUExampleScenario.node[27].appl 	meanClusterNodes 	0
scalar RSUExampleScenario.node[27].appl 	meanClusterHeadUtility 	0
scalar RSUExampleScenario.node[27].appl 	NumberofCH 	0.16216216216216
scalar RSUExampleScenario.node[27].appl 	NumberofON 	0
scalar RSUExampleScenario.node[27].appl 	NumberofFN 	0.83783783783784
scalar RSUExampleScenario.node[27].veinsmobility 	startTime 	65.1
scalar RSUExampleScenario.node[27].veinsmobility 	totalTime 	384.9
scalar RSUExampleScenario.node[27].veinsmobility 	stopTime 	450
scalar RSUExampleScenario.node[27].veinsmobility 	minSpeed 	0
scalar RSUExampleScenario.node[27].veinsmobility 	maxSpeed 	13.99994305203
scalar RSUExampleScenario.node[27].veinsmobility 	totalDistance 	2200.3713173368
scalar RSUExampleScenario.node[27].veinsmobility 	totalCO2Emission 	662.30559347102
scalar RSUExampleScenario.node[28].appl 	meanClusterNodes 	0
scalar RSUExampleScenario.node[28].appl 	meanClusterHeadUtility 	0
scalar RSUExampleScenario.node[28].appl 	NumberofCH 	0.081081081081081
scalar RSUExampleScenario.node[28].appl 	NumberofON 	0
scalar RSUExampleScenario.node[28].appl 	NumberofFN 	0.91891891891892
scalar RSUExampleScenario.node[28].veinsmobility 	startTime 	67.5
scalar RSUExampleScenario.node[28].veinsmobility 	totalTime 	382.5
scalar RSUExampleScenario.node[28].veinsmobility 	stopTime 	450
scalar RSUExampleScenario.node[28].veinsmobility 	minSpeed 	0
scalar RSUExampleScenario.node[28].veinsmobility 	maxSpeed 	13.999930153419
scalar RSUExampleScenario.node[28].veinsmobility 	totalDistance 	2169.7933516187
scalar RSUExampleScenario.node[28].veinsmobility 	totalCO2Emission 	656.7387398167
scalar RSUExampleScenario.node[29].appl 	meanClusterNodes 	0
scalar RSUExampleScenario.node[29].appl 	meanClusterHeadUtility 	0
scalar RSUExampleScenario.node[29].appl 	NumberofCH 	0.10810810810811
scalar RSUExampleScenario.node[29].appl 	NumberofON 	0
scalar RSUExampleScenario.node[29].appl 	NumberofFN 	0.89189189189189
scalar RSUExampleScenario.node[29].veinsmobility 	startTime 	69.9
scalar RSUExampleScenario.node[29].veinsmobility 	totalTime 	380.1
scalar RSUExampleScenario.node[29].veinsmobility 	stopTime 	450
scalar RSUExampleScenario.node[29].veinsmobility 	minSpeed 	0
scalar RSUExampleScenario.node[29].veinsmobility 	maxSpeed 	13.999968402737
scalar RSUExampleScenario.node[29].veinsmobility 	totalDistance 	2134.3284655344
scalar RSUExampleScenario.node[29].veinsmobility 	totalCO2Emission 	648.95383319224
scalar RSUExampleScenario.node[3].appl 	meanClusterNodes 	0
scalar RSUExampleScenario.node[3].appl 	meanClusterHeadUtility 	0
scalar RSUExampleScenario.node[3].appl 	NumberofCH 	0.16216216216216
scalar RSUExampleScenario.node[3].appl 	NumberofON 	0
scalar RSUExampleScenario.node[3].appl 	NumberofFN 	0.83783783783784
scalar RSUExampleScenario.node[3].veinsmobility 	startTime 	7.3
scalar RSUExampleScenario.node[3].veinsmobility 	totalTime 	442.7
scalar RSUExampleScenario.node[3].veinsmobility 	stopTime 	450
scalar RSUExampleScenario.node[3].veinsmobility 	minSpeed 	0
scalar RSUExampleScenario.node[3].veinsmobility 	maxSpeed 	13.9999469928
scalar RSUExampleScenario.node[3].veinsmobility 	totalDistance 	2991.5010584572
scalar RSUExampleScenario.node[3].veinsmobility 	totalCO2Emission 	813.06654189362
scalar RSUExampleScenario.node[30].appl 	meanClusterNodes 	0
scalar RSUExampleScenario.node[30].appl 	meanClusterHeadUtility 	0
scalar RSUExampleScenario.node[30].appl 	NumberofCH 	0.10810810810811
scalar RSUExampleScenario.node[30].appl 	NumberofON 	0
scalar RSUExampleScenario.node[30].appl 	NumberofFN 	0.89189189189189
scalar RSUExampleScenario.node[30].veinsmobility 	startTime 	72.4
scalar RSUExampleScenario.node[30].veinsmobility 	totalTime 	377.6
scalar RSUExampleScenario.node[30].veinsmobility 	stopTime 	450
scalar RSUExampleScenario.node[30].veinsmobility 	minSpeed 	0
scalar RSUExampleScenario.node[30].veinsmobility 	maxSpeed 	13.999912130772
scalar RSUExampleScenario.node[30].veinsmobility 	totalDistance 	2102.6275633883
scalar RSUExampleScenario.node[30].veinsmobility 	totalCO2Emission 	644.4561530171
scalar RSUExampleScenario.node[31].appl 	meanClusterNodes 	0
scalar RSUExampleScenario.node[31].appl 	meanClusterHeadUtility 	0
scalar RSUExampleScenario.node[31].appl 	NumberofCH 	0.054054054054054
scalar RSUExampleScenario.node[31].appl 	NumberofON 	0
scalar RSUExampleScenario.node[31].appl 	NumberofFN 	0.94594594594595
scalar RSUExampleScenario.node[31].veinsmobility 	startTime 	74.8
scalar RSUExampleScenario.node[31].veinsmobility 	totalTime 	375.2
scalar RSUExampleScenario.node[31].veinsmobility 	stopTime 	450
scalar RSUExampleScenario.node[31].veinsmobility 	minSpeed 	0
scalar RSUExampleScenario.node[31].veinsmobility 	maxSpeed 	13.99995379789
scalar RSUExampleScenario.node[31].veinsmobility 	totalDistance 	2066.2997035682
scalar RSUExampleScenario.node[31].veinsmobility 	totalCO2Emission 	637.45201180123
scalar RSUExampleScenario.node[32].appl 	meanClusterNodes 	0
scalar RSUExampleScenario.node[32].appl 	meanClusterHeadUtility 	0
scalar RSUExampleScenario.node[32].appl 	NumberofCH 	0.10810810810811
scalar RSUExampleScenario.node[32].appl 	NumberofON 	0
scalar RSUExampleScenario.node[32].appl 	NumberofFN 	0.89189189189189
scalar RSUExampleScenario.node[32].veinsmobility 	startTime 	77.2
scalar RSUExampleScenario.node[32].veinsmobility 	totalTime 	372.8
scalar RSUExampleScenario.node[32].veinsmobility 	stopTime 	450
scalar RSUExampleScenario.node[32].veinsmobility 	minSpeed 	0
scalar RSUExampleScenario.node[32].veinsmobility 	maxSpeed 	13.999990065987
scalar RSUExampleScenario.node[32].veinsmobility 	totalDistance 	2030.643823813
scalar RSUExampleScenario.node[32].veinsmobility 	totalCO2Emission 	632.16178683627
scalar RSUExampleScenario.node[33].appl 	meanClusterNodes 	0
scalar RSUExampleScenario.node[33].appl 	meanClusterHeadUtility 	0
scalar RSUExampleScenario.node[33].appl 	NumberofCH 	0.10810810810811
scalar RSUExampleScenario.node[33].appl 	NumberofON 	0
scalar RSUExampleScenario.node[33].appl 	NumberofFN 	0.89189189189189
scalar RSUExampleScenario.node[33].veinsmobility 	startTime 	79.6
scalar RSUExampleScenario.node[33].veinsmobility 	totalTime 	370.4
scalar RSUExampleScenario.node[33].veinsmobility 	stopTime 	450
scalar RSUExampleScenario.node[33].veinsmobility 	minSpeed 	0
scalar RSUExampleScenario.node[33].veinsmobility 	maxSpeed 	13.999920453015
scalar RSUExampleScenario.node[33].veinsmobility 	totalDistance 	1997.1451435564
scalar RSUExampleScenario.node[33].veinsmobility 	totalCO2Emission 	628.34243138977
scalar RSUExampleScenario.node[34].appl 	meanClusterNodes 	0
scalar RSUExampleScenario.node[34].appl 	meanClusterHeadUtility 	0
scalar RSUExampleScenario.node[34].appl 	NumberofCH 	0.16216216216216
scalar RSUExampleScenario.node[34].appl 	NumberofON 	0
scalar RSUExampleScenario.node[34].appl 	NumberofFN 	0.83783783783784
scalar RSUExampleScenario.node[34].veinsmobility 	startTime 	82
scalar RSUExampleScenario.node[34].veinsmobility 	totalTime 	368
scalar RSUExampleScenario.node[34].veinsmobility 	stopTime 	450
scalar RSUExampleScenario.node[34].veinsmobility 	minSpeed 	0
scalar RSUExampleScenario.node[34].veinsmobility 	maxSpeed 	13.999917174962
scalar RSUExampleScenario.node[34].veinsmobility 	totalDistance 	1965.3974268526
scalar RSUExampleScenario.node[34].veinsmobility 	totalCO2Emission 	622.5667304017
scalar RSUExampleScenario.node[35].appl 	meanClusterNodes 	0
scalar RSUExampleScenario.node[35].appl 	meanClusterHeadUtility 	0
scalar RSUExampleScenario.node[35].appl 	NumberofCH 	0.054054054054054
scalar RSUExampleScenario.node[35].appl 	NumberofON 	0
scalar RSUExampleScenario.node[35].appl 	NumberofFN 	0.94594594594595
scalar RSUExampleScenario.node[35].veinsmobility 	startTime 	84.4
scalar RSUExampleScenario.node[35].veinsmobility 	totalTime 	365.6
scalar RSUExampleScenario.node[35].veinsmobility 	stopTime 	450
scalar RSUExampleScenario.node[35].veinsmobility 	minSpeed 	0
scalar RSUExampleScenario.node[35].veinsmobility 	maxSpeed 	13.999876164962
scalar RSUExampleScenario.node[35].veinsmobility 	totalDistance 	1930.8064630069
scalar RSUExampleScenario.node[35].veinsmobility 	totalCO2Emission 	612.46220270072
scalar RSUExampleScenario.node[36].appl 	meanClusterNodes 	0
scalar RSUExampleScenario.node[36].appl 	meanClusterHeadUtility 	0
scalar RSUExampleScenario.node[36].appl 	NumberofCH 	0.13513513513514
scalar RSUExampleScenario.node[36].appl 	NumberofON 	0
scalar RSUExampleScenario.node[36].appl 	NumberofFN 	0.86486486486486
scalar RSUExampleScenario.node[36].veinsmobility 	startTime 	86.8
scalar RSUExampleScenario.node[36].veinsmobility 	totalTime 	363.2
scalar RSUExampleScenario.node[36].veinsmobility 	stopTime 	450
scalar RSUExampleScenario.node[36].veinsmobility 	minSpeed 	0
scalar RSUExampleScenario.node[36].veinsmobility 	maxSpeed 	13.999894424214
scalar RSUExampleScenario.node[36].veinsmobility 	totalDistance 	1898.1636285576
scalar RSUExampleScenario.node[36].veinsmobility 	totalCO2Emission 	610.81706103092
scalar RSUExampleScenario.node[37].appl 	meanClusterNodes 	0
scalar RSUExampleScenario.node[37].appl 	meanClusterHeadUtility 	0
scalar RSUExampleScenario.node[37].appl 	NumberofCH 	0.081081081081081
scalar RSUExampleScenario.node[37].appl 	NumberofON 	0
scalar RSUExampleScenario.node[37].appl 	NumberofFN 	0.91891891891892
scalar RSUExampleScenario.node[37].veinsmobility 	startTime 	89.2
scalar RSUExampleScenario.node[37].veinsmobility 	totalTime 	360.8
scalar RSUExampleScenario.node[37].veinsmobility 	stopTime 	450
scalar RSUExampleScenario.node[37].veinsmobility 	minSpeed 	0
scalar RSUExampleScenario.node[37].veinsmobility 	maxSpeed 	13.999989314221
scalar RSUExampleScenario.node[37].veinsmobility 	totalDistance 	1862.3209794767
scalar RSUExampleScenario.node[37].veinsmobility 	totalCO2Emission 	603.79615802907
scalar RSUExampleScenario.node[38].appl 	meanClusterNodes 	0
scalar RSUExampleScenario.node[38].appl 	meanClusterHeadUtility 	0
scalar RSUExampleScenario.node[38].appl 	NumberofCH 	0.054054054054054
scalar RSUExampleScenario.node[38].appl 	NumberofON 	0
scalar RSUExampleScenario.node[38].appl 	NumberofFN 	0.94594594594595
scalar RSUExampleScenario.node[38].veinsmobility 	startTime 	91.6
scalar RSUExampleScenario.node[38].veinsmobility 	totalTime 	358.4
scalar RSUExampleScenario.node[38].veinsmobility 	stopTime 	450
scalar RSUExampleScenario.node[38].veinsmobility 	minSpeed 	0
scalar RSUExampleScenario.node[38].veinsmobility 	maxSpeed 	13.999998506668
scalar RSUExampleScenario.node[38].veinsmobility 	totalDistance 	1829.4221417566
scalar RSUExampleScenario.node[38].veinsmobility 	totalCO2Emission 	597.17716787285
scalar RSUExampleScenario.node[39].appl 	meanClusterNodes 	0
scalar RSUExampleScenario.node[39].appl 	meanClusterHeadUtility 	0
scalar RSUExampleScenario.node[39].appl 	NumberofCH 	0.10810810810811
scalar RSUExampleScenario.node[39].appl 	NumberofON 	0
scalar RSUExampleScenario.node[39].appl 	NumberofFN 	0.89189189189189
scalar RSUExampleScenario.node[39].veinsmobility 	startTime 	94
scalar RSUExampleScenario.node[39].veinsmobility 	totalTime 	356
scalar RSUExampleScenario.node[39].veinsmobility 	stopTime 	450
scalar RSUExampleScenario.node[39].veinsmobility 	minSpeed 	0
scalar RSUExampleScenario.node[39].veinsmobility 	maxSpeed 	13.999774385961
scalar RSUExampleScenario.node[39].veinsmobility 	totalDistance 	1796.1279613786
scalar RSUExampleScenario.node[39].veinsmobility 	totalCO2Emission 	592.39662735774
scalar RSUExampleScenario.node[4].appl 	meanClusterNodes 	0
scalar RSUExampleScenario.node[4].appl 	meanClusterHeadUtility 	0
scalar RSUExampleScenario.node[4].appl 	NumberofCH 	0.054054054054054
scalar RSUExampleScenario.node[4].appl 	NumberofON 	0
scalar RSUExampleScenario.node[4].appl 	NumberofFN 	0.94594594594595
scalar RSUExampleScenario.node[4].veinsmobility 	startTime 	9.7
scalar RSUExampleScenario.node[4].veinsmobility 	totalTime 	440.3
scalar RSUExampleScenario.node[4].veinsmobility 	stopTime 	450
scalar RSUExampleScenario.node[4].veinsmobility 	minSpeed 	0
scalar RSUExampleScenario.node[4].veinsmobility 	maxSpeed 	13.999998366376
scalar RSUExampleScenario.node[4].veinsmobility 	totalDistance 	2949.2438719573
scalar RSUExampleScenario.node[4].veinsmobility 	totalCO2Emission 	795.92144964589
scalar RSUExampleScenario.node[40].appl 	meanClusterNodes 	0
scalar RSUExampleScenario.node[40].appl 	meanClusterHeadUtility 	0
scalar RSUExampleScenario.node[40].appl 	NumberofCH 	0.10810810810811
scalar RSUExampleScenario.node[40].appl 	NumberofON 	0
scalar RSUExampleScenario.node[40].appl 	NumberofFN 	0.89189189189189
scalar RSUExampleScenario.node[40].veinsmobility 	startTime 	96.5
scalar RSUExampleScenario.node[40].veinsmobility 	totalTime 	353.5
scalar RSUExampleScenario.node[40].veinsmobility 	stopTime 	450
scalar RSUExampleScenario.node[40].veinsmobility 	minSpeed 	0
scalar RSUExampleScenario.node[40].veinsmobility 	maxSpeed 	13.999987918807
scalar RSUExampleScenario.node[40].veinsmobility 	totalDistance 	1763.0262552062
scalar RSUExampleScenario.node[40].veinsmobility 	totalCO2Emission 	588.02756750752
scalar RSUExampleScenario.node[41].appl 	meanClusterNodes 	0
scalar RSUExampleScenario.node[41].appl 	meanClusterHeadUtility 	0
scalar RSUExampleScenario.node[41].appl 	NumberofCH 	0.10810810810811
scalar RSUExampleScenario.node[41].appl 	NumberofON 	0
scalar RSUExampleScenario.node[41].appl 	NumberofFN 	0.89189189189189
scalar RSUExampleScenario.node[41].veinsmobility 	startTime 	98.9
scalar RSUExampleScenario.node[41].veinsmobility 	totalTime 	351.1
scalar RSUExampleScenario.node[41].veinsmobility 	stopTime 	450
scalar RSUExampleScenario.node[41].veinsmobility 	minSpeed 	0
scalar RSUExampleScenario.node[41].veinsmobility 	maxSpeed 	13.999955692333
scalar RSUExampleScenario.node[41].veinsmobility 	totalDistance 	1729.289703606
scalar RSUExampleScenario.node[41].veinsmobility 	totalCO2Emission 	581.89256795618
scalar RSUExampleScenario.node[42].appl 	meanClusterNodes 	0
scalar RSUExampleScenario.node[42].appl 	meanClusterHeadUtility 	0
scalar RSUExampleScenario.node[42].appl 	NumberofCH 	0.16216216216216
scalar RSUExampleScenario.node[42].appl 	NumberofON 	0
scalar RSUExampleScenario.node[42].appl 	NumberofFN 	0.83783783783784
scalar RSUExampleScenario.node[42].veinsmobility 	startTime 	101.3
scalar RSUExampleScenario.node[42].veinsmobility 	totalTime 	348.7
scalar RSUExampleScenario.node[42].veinsmobility 	stopTime 	450
scalar RSUExampleScenario.node[42].veinsmobility 	minSpeed 	0
scalar RSUExampleScenario.node[42].veinsmobility 	maxSpeed 	13.999985258493
scalar RSUExampleScenario.node[42].veinsmobility 	totalDistance 	1696.2347598496
scalar RSUExampleScenario.node[42].veinsmobility 	totalCO2Emission 	576.97817269797
scalar RSUExampleScenario.node[43].appl 	meanClusterNodes 	0
scalar RSUExampleScenario.node[43].appl 	meanClusterHeadUtility 	0
scalar RSUExampleScenario.node[43].appl 	NumberofCH 	0.10810810810811
scalar RSUExampleScenario.node[43].appl 	NumberofON 	0
scalar RSUExampleScenario.node[43].appl 	NumberofFN 	0.89189189189189
scalar RSUExampleScenario.node[43].veinsmobility 	startTime 	103.7
scalar RSUExampleScenario.node[43].veinsmobility 	totalTime 	346.3
scalar RSUExampleScenario.node[43].veinsmobility 	stopTime 	450
scalar RSUExampleScenario.node[43].veinsmobility 	minSpeed 	0
scalar RSUExampleScenario.node[43].veinsmobility 	maxSpeed 	13.999907113884
scalar RSUExampleScenario.node[43].veinsmobility 	totalDistance 	1661.5431812788
scalar RSUExampleScenario.node[43].veinsmobility 	totalCO2Emission 	569.34559453721
scalar RSUExampleScenario.node[44].appl 	meanClusterNodes 	0
scalar RSUExampleScenario.node[44].appl 	meanClusterHeadUtility 	0
scalar RSUExampleScenario.node[44].appl 	NumberofCH 	0.10810810810811
scalar RSUExampleScenario.node[44].appl 	NumberofON 	0
scalar RSUExampleScenario.node[44].appl 	NumberofFN 	0.89189189189189
scalar RSUExampleScenario.node[44].veinsmobility 	startTime 	106.1
scalar RSUExampleScenario.node[44].veinsmobility 	totalTime 	343.9
scalar RSUExampleScenario.node[44].veinsmobility 	stopTime 	450
scalar RSUExampleScenario.node[44].veinsmobility 	minSpeed 	0
scalar RSUExampleScenario.node[44].veinsmobility 	maxSpeed 	13.999940664219
scalar RSUExampleScenario.node[44].veinsmobility 	totalDistance 	1628.4233016117
scalar RSUExampleScenario.node[44].veinsmobility 	totalCO2Emission 	563.62488819435
scalar RSUExampleScenario.node[45].appl 	meanClusterNodes 	0
scalar RSUExampleScenario.node[45].appl 	meanClusterHeadUtility 	0
scalar RSUExampleScenario.node[45].appl 	NumberofCH 	0.054054054054054
scalar RSUExampleScenario.node[45].appl 	NumberofON 	0
scalar RSUExampleScenario.node[45].appl 	NumberofFN 	0.94594594594595
scalar RSUExampleScenario.node[45].veinsmobility 	startTime 	108.5
scalar RSUExampleScenario.node[45].veinsmobility 	totalTime 	341.5
scalar RSUExampleScenario.node[45].veinsmobility 	stopTime 	450
scalar RSUExampleScenario.node[45].veinsmobility 	minSpeed 	0
scalar RSUExampleScenario.node[45].veinsmobility 	maxSpeed 	13.999831192216
scalar RSUExampleScenario.node[45].veinsmobility 	totalDistance 	1594.0011361709
scalar RSUExampleScenario.node[45].veinsmobility 	totalCO2Emission 	557.46349251153
scalar RSUExampleScenario.node[46].appl 	meanClusterNodes 	0
scalar RSUExampleScenario.node[46].appl 	meanClusterHeadUtility 	0
scalar RSUExampleScenario.node[46].appl 	NumberofCH 	0.13513513513514
scalar RSUExampleScenario.node[46].appl 	NumberofON 	0
scalar RSUExampleScenario.node[46].appl 	NumberofFN 	0.86486486486486
scalar RSUExampleScenario.node[46].veinsmobility 	startTime 	110.9
scalar RSUExampleScenario.node[46].veinsmobility 	totalTime 	339.1
scalar RSUExampleScenario.node[46].veinsmobility 	stopTime 	450
scalar RSUExampleScenario.node[46].veinsmobility 	minSpeed 	0
scalar RSUExampleScenario.node[46].veinsmobility 	maxSpeed 	13.999734616585
scalar RSUExampleScenario.node[46].veinsmobility 	totalDistance 	1561.8478605454
scalar RSUExampleScenario.node[46].veinsmobility 	totalCO2Emission 	554.36568286121
scalar RSUExampleScenario.node[47].appl 	meanClusterNodes 	0
scalar RSUExampleScenario.node[47].appl 	meanClusterHeadUtility 	0
scalar RSUExampleScenario.node[47].appl 	NumberofCH 	0.054054054054054
scalar RSUExampleScenario.node[47].appl 	NumberofON 	0
scalar RSUExampleScenario.node[47].appl 	NumberofFN 	0.94594594594595
scalar RSUExampleScenario.node[47].veinsmobility 	startTime 	113.3
scalar RSUExampleScenario.node[47].veinsmobility 	totalTime 	336.7
scalar RSUExampleScenario.node[47].veinsmobility 	stopTime 	450
scalar RSUExampleScenario.node[47].veinsmobility 	minSpeed 	0
scalar RSUExampleScenario.node[47].veinsmobility 	maxSpeed 	13.999532478817
scalar RSUExampleScenario.node[47].veinsmobility 	totalDistance 	1529.0907384874
scalar RSUExampleScenario.node[47].veinsmobility 	totalCO2Emission 	546.91040556417
scalar RSUExampleScenario.node[48].appl 	meanClusterNodes 	0
scalar RSUExampleScenario.node[48].appl 	meanClusterHeadUtility 	0
scalar RSUExampleScenario.node[48].appl 	NumberofCH 	0.054054054054054
scalar RSUExampleScenario.node[48].appl 	NumberofON 	0
scalar RSUExampleScenario.node[48].appl 	NumberofFN 	0.94594594594595
scalar RSUExampleScenario.node[48].veinsmobility 	startTime 	115.7
scalar RSUExampleScenario.node[48].veinsmobility 	totalTime 	334.3
scalar RSUExampleScenario.node[48].veinsmobility 	stopTime 	450
scalar RSUExampleScenario.node[48].veinsmobility 	minSpeed 	0
scalar RSUExampleScenario.node[48].veinsmobility 	maxSpeed 	13.99980865519
scalar RSUExampleScenario.node[48].veinsmobility 	totalDistance 	1493.1975691793
scalar RSUExampleScenario.node[48].veinsmobility 	totalCO2Emission 	544.93010761321
scalar RSUExampleScenario.node[49].appl 	meanClusterNodes 	0
scalar RSUExampleScenario.node[49].appl 	meanClusterHeadUtility 	0
scalar RSUExampleScenario.node[49].appl 	NumberofCH 	0.10810810810811
scalar RSUExampleScenario.node[49].appl 	NumberofON 	0
scalar RSUExampleScenario.node[49].appl 	NumberofFN 	0.89189189189189
scalar RSUExampleScenario.node[49].veinsmobility 	startTime 	118.1
scalar RSUExampleScenario.node[49].veinsmobility 	totalTime 	331.9
scalar RSUExampleScenario.node[49].veinsmobility 	stopTime 	450
scalar RSUExampleScenario.node[49].veinsmobility 	minSpeed 	0
scalar RSUExampleScenario.node[49].veinsmobility 	maxSpeed 	13.999355652167
scalar RSUExampleScenario.node[49].veinsmobility 	totalDistance 	1460.4484742752
scalar RSUExampleScenario.node[49].veinsmobility 	totalCO2Emission 	536.13239432052
scalar RSUExampleScenario.node[5].appl 	meanClusterNodes 	0
scalar RSUExampleScenario.node[5].appl 	meanClusterHeadUtility 	0
scalar RSUExampleScenario.node[5].appl 	NumberofCH 	0.10810810810811
scalar RSUExampleScenario.node[5].appl 	NumberofON 	0
scalar RSUExampleScenario.node[5].appl 	NumberofFN 	0.89189189189189
scalar RSUExampleScenario.node[5].veinsmobility 	startTime 	12.1
scalar RSUExampleScenario.node[5].veinsmobility 	totalTime 	437.9
scalar RSUExampleScenario.node[5].veinsmobility 	stopTime 	450
scalar RSUExampleScenario.node[5].veinsmobility 	minSpeed 	0
scalar RSUExampleScenario.node[5].veinsmobility 	maxSpeed 	13.999799877536
scalar RSUExampleScenario.node[5].veinsmobility 	totalDistance 	2913.0917025364
scalar RSUExampleScenario.node[5].veinsmobility 	totalCO2Emission 	782.18319349245
scalar RSUExampleScenario.node[50].appl 	meanClusterNodes 	0
scalar RSUExampleScenario.node[50].appl 	meanClusterHeadUtility 	0
scalar RSUExampleScenario.node[50].appl 	NumberofCH 	0.10810810810811
scalar RSUExampleScenario.node[50].appl 	NumberofON 	0
scalar RSUExampleScenario.node[50].appl 	NumberofFN 	0.89189189189189
scalar RSUExampleScenario.node[50].veinsmobility 	startTime 	120.6
scalar RSUExampleScenario.node[50].veinsmobility 	totalTime 	329.4
scalar RSUExampleScenario.node[50].veinsmobility 	stopTime 	450
scalar RSUExampleScenario.node[50].veinsmobility 	minSpeed 	0
scalar RSUExampleScenario.node[50].veinsmobility 	maxSpeed 	13.999716841499
scalar RSUExampleScenario.node[50].veinsmobility 	totalDistance 	1427.5734109276
scalar RSUExampleScenario.node[50].veinsmobility 	totalCO2Emission 	530.0995723972
scalar RSUExampleScenario.node[51].appl 	meanClusterNodes 	0
scalar RSUExampleScenario.node[51].appl 	meanClusterHeadUtility 	0
scalar RSUExampleScenario.node[51].appl 	NumberofCH 	0.10810810810811
scalar RSUExampleScenario.node[51].appl 	NumberofON 	0
scalar RSUExampleScenario.node[51].appl 	NumberofFN 	0.89189189189189
scalar RSUExampleScenario.node[51].veinsmobility 	startTime 	123
scalar RSUExampleScenario.node[51].veinsmobility 	totalTime 	327
scalar RSUExampleScenario.node[51].veinsmobility 	stopTime 	450
scalar RSUExampleScenario.node[51].veinsmobility 	minSpeed 	0
scalar RSUExampleScenario.node[51].veinsmobility 	maxSpeed 	13.999641611576
scalar RSUExampleScenario.node[51].veinsmobility 	totalDistance 	1392.1367360861
scalar RSUExampleScenario.node[51].veinsmobility 	totalCO2Emission 	522.14420730985
scalar RSUExampleScenario.node[52].appl 	meanClusterNodes 	0
scalar RSUExampleScenario.node[52].appl 	meanClusterHeadUtility 	0
scalar RSUExampleScenario.node[52].appl 	NumberofCH 	0.10810810810811
scalar RSUExampleScenario.node[52].appl 	NumberofON 	0
scalar RSUExampleScenario.node[52].appl 	NumberofFN 	0.89189189189189
scalar RSUExampleScenario.node[52].veinsmobility 	startTime 	125.4
scalar RSUExampleScenario.node[52].veinsmobility 	totalTime 	324.6
scalar RSUExampleScenario.node[52].veinsmobility 	stopTime 	450
scalar RSUExampleScenario.node[52].veinsmobility 	minSpeed 	0
scalar RSUExampleScenario.node[52].veinsmobility 	maxSpeed 	13.999912846035
scalar RSUExampleScenario.node[52].veinsmobility 	totalDistance 	1360.2522226645
scalar RSUExampleScenario.node[52].veinsmobility 	totalCO2Emission 	518.17514967233
scalar RSUExampleScenario.node[53].appl 	meanClusterNodes 	0
scalar RSUExampleScenario.node[53].appl 	meanClusterHeadUtility 	0
scalar RSUExampleScenario.node[53].appl 	NumberofCH 	0.10810810810811
scalar RSUExampleScenario.node[53].appl 	NumberofON 	0
scalar RSUExampleScenario.node[53].appl 	NumberofFN 	0.89189189189189
scalar RSUExampleScenario.node[53].veinsmobility 	startTime 	127.8
scalar RSUExampleScenario.node[53].veinsmobility 	totalTime 	322.2
scalar RSUExampleScenario.node[53].veinsmobility 	stopTime 	450
scalar RSUExampleScenario.node[53].veinsmobility 	minSpeed 	0
scalar RSUExampleScenario.node[53].veinsmobility 	maxSpeed 	13.99994521162
scalar RSUExampleScenario.node[53].veinsmobility 	totalDistance 	1324.6827772066
scalar RSUExampleScenario.node[53].veinsmobility 	totalCO2Emission 	514.33352990927
scalar RSUExampleScenario.node[54].appl 	meanClusterNodes 	0
scalar RSUExampleScenario.node[54].appl 	meanClusterHeadUtility 	0
scalar RSUExampleScenario.node[54].appl 	NumberofCH 	0.10810810810811
scalar RSUExampleScenario.node[54].appl 	NumberofON 	0
scalar RSUExampleScenario.node[54].appl 	NumberofFN 	0.89189189189189
scalar RSUExampleScenario.node[54].veinsmobility 	startTime 	130.2
scalar RSUExampleScenario.node[54].veinsmobility 	totalTime 	319.8
scalar RSUExampleScenario.node[54].veinsmobility 	stopTime 	450
scalar RSUExampleScenario.node[54].veinsmobility 	minSpeed 	0
scalar RSUExampleScenario.node[54].veinsmobility 	maxSpeed 	13.999790544282
scalar RSUExampleScenario.node[54].veinsmobility 	totalDistance 	1291.164026862
scalar RSUExampleScenario.node[54].veinsmobility 	totalCO2Emission 	505.02920791828
scalar RSUExampleScenario.node[55].appl 	meanClusterNodes 	0
scalar RSUExampleScenario.node[55].appl 	meanClusterHeadUtility 	0
scalar RSUExampleScenario.node[55].appl 	NumberofCH 	0.16216216216216
scalar RSUExampleScenario.node[55].appl 	NumberofON 	0
scalar RSUExampleScenario.node[55].appl 	NumberofFN 	0.83783783783784
scalar RSUExampleScenario.node[55].veinsmobility 	startTime 	132.6
scalar RSUExampleScenario.node[55].veinsmobility 	totalTime 	317.4
scalar RSUExampleScenario.node[55].veinsmobility 	stopTime 	450
scalar RSUExampleScenario.node[55].veinsmobility 	minSpeed 	0
scalar RSUExampleScenario.node[55].veinsmobility 	maxSpeed 	13.999566298809
scalar RSUExampleScenario.node[55].veinsmobility 	totalDistance 	1257.4746438266
scalar RSUExampleScenario.node[55].veinsmobility 	totalCO2Emission 	500.44459017397
scalar RSUExampleScenario.node[56].appl 	meanClusterNodes 	0
scalar RSUExampleScenario.node[56].appl 	meanClusterHeadUtility 	0
scalar RSUExampleScenario.node[56].appl 	NumberofCH 	0.10810810810811
scalar RSUExampleScenario.node[56].appl 	NumberofON 	0
scalar RSUExampleScenario.node[56].appl 	NumberofFN 	0.89189189189189
scalar RSUExampleScenario.node[56].veinsmobility 	startTime 	135
scalar RSUExampleScenario.node[56].veinsmobility 	totalTime 	315
scalar RSUExampleScenario.node[56].veinsmobility 	stopTime 	450
scalar RSUExampleScenario.node[56].veinsmobility 	minSpeed 	0
scalar RSUExampleScenario.node[56].veinsmobility 	maxSpeed 	13.999945409785
scalar RSUExampleScenario.node[56].veinsmobility 	totalDistance 	1224.1992919702
scalar RSUExampleScenario.node[56].veinsmobility 	totalCO2Emission 	497.11130851865
scalar RSUExampleScenario.node[57].appl 	meanClusterNodes 	0
scalar RSUExampleScenario.node[57].appl 	meanClusterHeadUtility 	0
scalar RSUExampleScenario.node[57].appl 	NumberofCH 	0.054054054054054
scalar RSUExampleScenario.node[57].appl 	NumberofON 	0
scalar RSUExampleScenario.node[57].appl 	NumberofFN 	0.94594594594595
scalar RSUExampleScenario.node[57].veinsmobility 	startTime 	137.4
scalar RSUExampleScenario.node[57].veinsmobility 	totalTime 	312.6
scalar RSUExampleScenario.node[57].veinsmobility 	stopTime 	450
scalar RSUExampleScenario.node[57].veinsmobility 	minSpeed 	0
scalar RSUExampleScenario.node[57].veinsmobility 	maxSpeed 	13.999934046578
scalar RSUExampleScenario.node[57].veinsmobility 	totalDistance 	1190.844553781
scalar RSUExampleScenario.node[57].veinsmobility 	totalCO2Emission 	492.09366617343
scalar RSUExampleScenario.node[58].appl 	meanClusterNodes 	0
scalar RSUExampleScenario.node[58].appl 	meanClusterHeadUtility 	0
scalar RSUExampleScenario.node[58].appl 	NumberofCH 	0.054054054054054
scalar RSUExampleScenario.node[58].appl 	NumberofON 	0
scalar RSUExampleScenario.node[58].appl 	NumberofFN 	0.94594594594595
scalar RSUExampleScenario.node[58].veinsmobility 	startTime 	139.8
scalar RSUExampleScenario.node[58].veinsmobility 	totalTime 	310.2
scalar RSUExampleScenario.node[58].veinsmobility 	stopTime 	450
scalar RSUExampleScenario.node[58].veinsmobility 	minSpeed 	0
scalar RSUExampleScenario.node[58].veinsmobility 	maxSpeed 	13.999700445272
scalar RSUExampleScenario.node[58].veinsmobility 	totalDistance 	1158.2609787257
scalar RSUExampleScenario.node[58].veinsmobility 	totalCO2Emission 	486.57907228578
scalar RSUExampleScenario.node[59].appl 	meanClusterNodes 	0
scalar RSUExampleScenario.node[59].appl 	meanClusterHeadUtility 	0
scalar RSUExampleScenario.node[59].appl 	NumberofCH 	0.10810810810811
scalar RSUExampleScenario.node[59].appl 	NumberofON 	0
scalar RSUExampleScenario.node[59].appl 	NumberofFN 	0.89189189189189
scalar RSUExampleScenario.node[59].veinsmobility 	startTime 	142.2
scalar RSUExampleScenario.node[59].veinsmobility 	totalTime 	307.8
scalar RSUExampleScenario.node[59].veinsmobility 	stopTime 	450
scalar RSUExampleScenario.node[59].veinsmobility 	minSpeed 	0
scalar RSUExampleScenario.node[59].veinsmobility 	maxSpeed 	13.999995900111
scalar RSUExampleScenario.node[59].veinsmobility 	totalDistance 	1124.4594997107
scalar RSUExampleScenario.node[59].veinsmobility 	totalCO2Emission 	480.07634961985
scalar RSUExampleScenario.node[6].appl 	meanClusterNodes 	0
scalar RSUExampleScenario.node[6].appl 	meanClusterHeadUtility 	0
scalar RSUExampleScenario.node[6].appl 	NumberofCH 	0.10810810810811
scalar RSUExampleScenario.node[6].appl 	NumberofON 	0
scalar RSUExampleScenario.node[6].appl 	NumberofFN 	0.89189189189189
scalar RSUExampleScenario.node[6].veinsmobility 	startTime 	14.5
scalar RSUExampleScenario.node[6].veinsmobility 	totalTime 	435.5
scalar RSUExampleScenario.node[6].veinsmobility 	stopTime 	450
scalar RSUExampleScenario.node[6].veinsmobility 	minSpeed 	0
scalar RSUExampleScenario.node[6].veinsmobility 	maxSpeed 	13.999745695817
scalar RSUExampleScenario.node[6].veinsmobility 	totalDistance 	2905.0929152284
scalar RSUExampleScenario.node[6].veinsmobility 	totalCO2Emission 	775.23463758133
scalar RSUExampleScenario.node[60].appl 	meanClusterNodes 	0
scalar RSUExampleScenario.node[60].appl 	meanClusterHeadUtility 	0
scalar RSUExampleScenario.node[60].appl 	NumberofCH 	0.054054054054054
scalar RSUExampleScenario.node[60].appl 	NumberofON 	0
scalar RSUExampleScenario.node[60].appl 	NumberofFN 	0.94594594594595
scalar RSUExampleScenario.node[60].veinsmobility 	startTime 	144.7
scalar RSUExampleScenario.node[60].veinsmobility 	totalTime 	305.3
scalar RSUExampleScenario.node[60].veinsmobility 	stopTime 	450
scalar RSUExampleScenario.node[60].veinsmobility 	minSpeed 	0
scalar RSUExampleScenario.node[60].veinsmobility 	maxSpeed 	13.999548018491
scalar RSUExampleScenario.node[60].veinsmobility 	totalDistance 	1090.5170803253
scalar RSUExampleScenario.node[60].veinsmobility 	totalCO2Emission 	472.22314185734
scalar RSUExampleScenario.node[61].appl 	meanClusterNodes 	0
scalar RSUExampleScenario.node[61].appl 	meanClusterHeadUtility 	0
scalar RSUExampleScenario.node[61].appl 	NumberofCH 	0.16216216216216
scalar RSUExampleScenario.node[61].appl 	NumberofON 	0
scalar RSUExampleScenario.node[61].appl 	NumberofFN 	0.83783783783784
scalar RSUExampleScenario.node[61].veinsmobility 	startTime 	147.1
scalar RSUExampleScenario.node[61].veinsmobility 	totalTime 	302.9
scalar RSUExampleScenario.node[61].veinsmobility 	stopTime 	450
scalar RSUExampleScenario.node[61].veinsmobility 	minSpeed 	0
scalar RSUExampleScenario.node[61].veinsmobility 	maxSpeed 	13.999980131551
scalar RSUExampleScenario.node[61].veinsmobility 	totalDistance 	1057.6180029249
scalar RSUExampleScenario.node[61].veinsmobility 	totalCO2Emission 	469.98834119788
scalar RSUExampleScenario.node[62].appl 	meanClusterNodes 	0
scalar RSUExampleScenario.node[62].appl 	meanClusterHeadUtility 	0
scalar RSUExampleScenario.node[62].appl 	NumberofCH 	0.10810810810811
scalar RSUExampleScenario.node[62].appl 	NumberofON 	0
scalar RSUExampleScenario.node[62].appl 	NumberofFN 	0.89189189189189
scalar RSUExampleScenario.node[62].veinsmobility 	startTime 	149.5
scalar RSUExampleScenario.node[62].veinsmobility 	totalTime 	300.5
scalar RSUExampleScenario.node[62].veinsmobility 	stopTime 	450
scalar RSUExampleScenario.node[62].veinsmobility 	minSpeed 	0
scalar RSUExampleScenario.node[62].veinsmobility 	maxSpeed 	13.999854008979
scalar RSUExampleScenario.node[62].veinsmobility 	totalDistance 	1023.4901550196
scalar RSUExampleScenario.node[62].veinsmobility 	totalCO2Emission 	460.01653083185
scalar RSUExampleScenario.node[63].appl 	meanClusterNodes 	0
scalar RSUExampleScenario.node[63].appl 	meanClusterHeadUtility 	0
scalar RSUExampleScenario.node[63].appl 	NumberofCH 	0.16216216216216
scalar RSUExampleScenario.node[63].appl 	NumberofON 	0
scalar RSUExampleScenario.node[63].appl 	NumberofFN 	0.83783783783784
scalar RSUExampleScenario.node[63].veinsmobility 	startTime 	151.9
scalar RSUExampleScenario.node[63].veinsmobility 	totalTime 	298.1
scalar RSUExampleScenario.node[63].veinsmobility 	stopTime 	450
scalar RSUExampleScenario.node[63].veinsmobility 	minSpeed 	0
scalar RSUExampleScenario.node[63].veinsmobility 	maxSpeed 	13.999293873911
scalar RSUExampleScenario.node[63].veinsmobility 	totalDistance 	983.52300262002
scalar RSUExampleScenario.node[63].veinsmobility 	totalCO2Emission 	447.91092296105
scalar RSUExampleScenario.node[64].appl 	meanClusterNodes 	0
scalar RSUExampleScenario.node[64].appl 	meanClusterHeadUtility 	0
scalar RSUExampleScenario.node[64].appl 	NumberofCH 	0.10810810810811
scalar RSUExampleScenario.node[64].appl 	NumberofON 	0
scalar RSUExampleScenario.node[64].appl 	NumberofFN 	0.89189189189189
scalar RSUExampleScenario.node[64].veinsmobility 	startTime 	154.3
scalar RSUExampleScenario.node[64].veinsmobility 	totalTime 	295.7
scalar RSUExampleScenario.node[64].veinsmobility 	stopTime 	450
scalar RSUExampleScenario.node[64].veinsmobility 	minSpeed 	0
scalar RSUExampleScenario.node[64].veinsmobility 	maxSpeed 	13.999209180884
scalar RSUExampleScenario.node[64].veinsmobility 	totalDistance 	953.94310855864
scalar RSUExampleScenario.node[64].veinsmobility 	totalCO2Emission 	434.97616207712
scalar RSUExampleScenario.node[65].appl 	meanClusterNodes 	0
scalar RSUExampleScenario.node[65].appl 	meanClusterHeadUtility 	0
scalar RSUExampleScenario.node[65].appl 	NumberofCH 	0.054054054054054
scalar RSUExampleScenario.node[65].appl 	NumberofON 	0
scalar RSUExampleScenario.node[65].appl 	NumberofFN 	0.94594594594595
scalar RSUExampleScenario.node[65].veinsmobility 	startTime 	156.7
scalar RSUExampleScenario.node[65].veinsmobility 	totalTime 	293.3
scalar RSUExampleScenario.node[65].veinsmobility 	stopTime 	450
scalar RSUExampleScenario.node[65].veinsmobility 	minSpeed 	0
scalar RSUExampleScenario.node[65].veinsmobility 	maxSpeed 	13.999881132997
scalar RSUExampleScenario.node[65].veinsmobility 	totalDistance 	940.32986789374
scalar RSUExampleScenario.node[65].veinsmobility 	totalCO2Emission 	429.60450567717
scalar RSUExampleScenario.node[66].appl 	meanClusterNodes 	0
scalar RSUExampleScenario.node[66].appl 	meanClusterHeadUtility 	0
scalar RSUExampleScenario.node[66].appl 	NumberofCH 	0.10810810810811
scalar RSUExampleScenario.node[66].appl 	NumberofON 	0
scalar RSUExampleScenario.node[66].appl 	NumberofFN 	0.89189189189189
scalar RSUExampleScenario.node[66].veinsmobility 	startTime 	159.1
scalar RSUExampleScenario.node[66].veinsmobility 	totalTime 	290.9
scalar RSUExampleScenario.node[66].veinsmobility 	stopTime 	450
scalar RSUExampleScenario.node[66].veinsmobility 	minSpeed 	0
scalar RSUExampleScenario.node[66].veinsmobility 	maxSpeed 	13.999979244729
scalar RSUExampleScenario.node[66].veinsmobility 	totalDistance 	928.0908489868
scalar RSUExampleScenario.node[66].veinsmobility 	totalCO2Emission 	423.8717589466
scalar RSUExampleScenario.node[67].appl 	meanClusterNodes 	0
scalar RSUExampleScenario.node[67].appl 	meanClusterHeadUtility 	0
scalar RSUExampleScenario.node[67].appl 	NumberofCH 	0.054054054054054
scalar RSUExampleScenario.node[67].appl 	NumberofON 	0
scalar RSUExampleScenario.node[67].appl 	NumberofFN 	0.94594594594595
scalar RSUExampleScenario.node[67].veinsmobility 	startTime 	161.5
scalar RSUExampleScenario.node[67].veinsmobility 	totalTime 	288.5
scalar RSUExampleScenario.node[67].veinsmobility 	stopTime 	450
scalar RSUExampleScenario.node[67].veinsmobility 	minSpeed 	0
scalar RSUExampleScenario.node[67].veinsmobility 	maxSpeed 	13.999067250676
scalar RSUExampleScenario.node[67].veinsmobility 	totalDistance 	912.98232987758
scalar RSUExampleScenario.node[67].veinsmobility 	totalCO2Emission 	422.69507490751
scalar RSUExampleScenario.node[68].appl 	meanClusterNodes 	0
scalar RSUExampleScenario.node[68].appl 	meanClusterHeadUtility 	0
scalar RSUExampleScenario.node[68].appl 	NumberofCH 	0.10810810810811
scalar RSUExampleScenario.node[68].appl 	NumberofON 	0
scalar RSUExampleScenario.node[68].appl 	NumberofFN 	0.89189189189189
scalar RSUExampleScenario.node[68].veinsmobility 	startTime 	163.9
scalar RSUExampleScenario.node[68].veinsmobility 	totalTime 	286.1
scalar RSUExampleScenario.node[68].veinsmobility 	stopTime 	450
scalar RSUExampleScenario.node[68].veinsmobility 	minSpeed 	0
scalar RSUExampleScenario.node[68].veinsmobility 	maxSpeed 	13.999916228452
scalar RSUExampleScenario.node[68].veinsmobility 	totalDistance 	892.91431475045
scalar RSUExampleScenario.node[68].veinsmobility 	totalCO2Emission 	419.80838721919
scalar RSUExampleScenario.node[69].appl 	meanClusterNodes 	0
scalar RSUExampleScenario.node[69].appl 	meanClusterHeadUtility 	0
scalar RSUExampleScenario.node[69].appl 	NumberofCH 	0.10810810810811
scalar RSUExampleScenario.node[69].appl 	NumberofON 	0
scalar RSUExampleScenario.node[69].appl 	NumberofFN 	0.89189189189189
scalar RSUExampleScenario.node[69].veinsmobility 	startTime 	166.3
scalar RSUExampleScenario.node[69].veinsmobility 	totalTime 	283.7
scalar RSUExampleScenario.node[69].veinsmobility 	stopTime 	450
scalar RSUExampleScenario.node[69].veinsmobility 	minSpeed 	0
scalar RSUExampleScenario.node[69].veinsmobility 	maxSpeed 	13.999236089727
scalar RSUExampleScenario.node[69].veinsmobility 	totalDistance 	859.30929557641
scalar RSUExampleScenario.node[69].veinsmobility 	totalCO2Emission 	414.5063922923
scalar RSUExampleScenario.node[7].appl 	meanClusterNodes 	0
scalar RSUExampleScenario.node[7].appl 	meanClusterHeadUtility 	0
scalar RSUExampleScenario.node[7].appl 	NumberofCH 	0.10810810810811
scalar RSUExampleScenario.node[7].appl 	NumberofON 	0
scalar RSUExampleScenario.node[7].appl 	NumberofFN 	0.89189189189189
scalar RSUExampleScenario.node[7].veinsmobility 	startTime 	16.9
scalar RSUExampleScenario.node[7].veinsmobility 	totalTime 	433.1
scalar RSUExampleScenario.node[7].veinsmobility 	stopTime 	450
scalar RSUExampleScenario.node[7].veinsmobility 	minSpeed 	0
scalar RSUExampleScenario.node[7].veinsmobility 	maxSpeed 	13.999908320941
scalar RSUExampleScenario.node[7].veinsmobility 	totalDistance 	2884.5838139007
scalar RSUExampleScenario.node[7].veinsmobility 	totalCO2Emission 	778.09921550099
scalar RSUExampleScenario.node[70].appl 	meanClusterNodes 	0
scalar RSUExampleScenario.node[70].appl 	meanClusterHeadUtility 	0
scalar RSUExampleScenario.node[70].appl 	NumberofCH 	0.054054054054054
scalar RSUExampleScenario.node[70].appl 	NumberofON 	0
scalar RSUExampleScenario.node[70].appl 	NumberofFN 	0.94594594594595
scalar RSUExampleScenario.node[70].veinsmobility 	startTime 	168.8
scalar RSUExampleScenario.node[70].veinsmobility 	totalTime 	281.2
scalar RSUExampleScenario.node[70].veinsmobility 	stopTime 	450
scalar RSUExampleScenario.node[70].veinsmobility 	minSpeed 	0
scalar RSUExampleScenario.node[70].veinsmobility 	maxSpeed 	13.999842501727
scalar RSUExampleScenario.node[70].veinsmobility 	totalDistance 	824.85092396211
scalar RSUExampleScenario.node[70].veinsmobility 	totalCO2Emission 	407.88357439885
scalar RSUExampleScenario.node[71].appl 	meanClusterNodes 	0
scalar RSUExampleScenario.node[71].appl 	meanClusterHeadUtility 	0
scalar RSUExampleScenario.node[71].appl 	NumberofCH 	0.054054054054054
scalar RSUExampleScenario.node[71].appl 	NumberofON 	0
scalar RSUExampleScenario.node[71].appl 	NumberofFN 	0.94594594594595
scalar RSUExampleScenario.node[71].veinsmobility 	startTime 	171.2
scalar RSUExampleScenario.node[71].veinsmobility 	totalTime 	278.8
scalar RSUExampleScenario.node[71].veinsmobility 	stopTime 	450
scalar RSUExampleScenario.node[71].veinsmobility 	minSpeed 	0
scalar RSUExampleScenario.node[71].veinsmobility 	maxSpeed 	13.99813321454
scalar RSUExampleScenario.node[71].veinsmobility 	totalDistance 	792.00350452344
scalar RSUExampleScenario.node[71].veinsmobility 	totalCO2Emission 	403.50529245296
scalar RSUExampleScenario.node[72].appl 	meanClusterNodes 	0
scalar RSUExampleScenario.node[72].appl 	meanClusterHeadUtility 	0
scalar RSUExampleScenario.node[72].appl 	NumberofCH 	0.10810810810811
scalar RSUExampleScenario.node[72].appl 	NumberofON 	0
scalar RSUExampleScenario.node[72].appl 	NumberofFN 	0.89189189189189
scalar RSUExampleScenario.node[72].veinsmobility 	startTime 	173.6
scalar RSUExampleScenario.node[72].veinsmobility 	totalTime 	276.4
scalar RSUExampleScenario.node[72].veinsmobility 	stopTime 	450
scalar RSUExampleScenario.node[72].veinsmobility 	minSpeed 	0
scalar RSUExampleScenario.node[72].veinsmobility 	maxSpeed 	13.999899174108
scalar RSUExampleScenario.node[72].veinsmobility 	totalDistance 	757.44953348238
scalar RSUExampleScenario.node[72].veinsmobility 	totalCO2Emission 	395.85831760355
scalar RSUExampleScenario.node[73].appl 	meanClusterNodes 	0
scalar RSUExampleScenario.node[73].appl 	meanClusterHeadUtility 	0
scalar RSUExampleScenario.node[73].appl 	NumberofCH 	0.10810810810811
scalar RSUExampleScenario.node[73].appl 	NumberofON 	0
scalar RSUExampleScenario.node[73].appl 	NumberofFN 	0.89189189189189
scalar RSUExampleScenario.node[73].veinsmobility 	startTime 	176
scalar RSUExampleScenario.node[73].veinsmobility 	totalTime 	274
scalar RSUExampleScenario.node[73].veinsmobility 	stopTime 	450
scalar RSUExampleScenario.node[73].veinsmobility 	minSpeed 	0
scalar RSUExampleScenario.node[73].veinsmobility 	maxSpeed 	13.999904354443
scalar RSUExampleScenario.node[73].veinsmobility 	totalDistance 	724.49492246378
scalar RSUExampleScenario.node[73].veinsmobility 	totalCO2Emission 	389.52353653398
scalar RSUExampleScenario.node[74].appl 	meanClusterNodes 	0
scalar RSUExampleScenario.node[74].appl 	meanClusterHeadUtility 	0
scalar RSUExampleScenario.node[74].appl 	NumberofCH 	0.054054054054054
scalar RSUExampleScenario.node[74].appl 	NumberofON 	0
scalar RSUExampleScenario.node[74].appl 	NumberofFN 	0.94594594594595
scalar RSUExampleScenario.node[74].veinsmobility 	startTime 	178.4
scalar RSUExampleScenario.node[74].veinsmobility 	totalTime 	271.6
scalar RSUExampleScenario.node[74].veinsmobility 	stopTime 	450
scalar RSUExampleScenario.node[74].veinsmobility 	minSpeed 	0
scalar RSUExampleScenario.node[74].veinsmobility 	maxSpeed 	13.999970960866
scalar RSUExampleScenario.node[74].veinsmobility 	totalDistance 	691.20998362192
scalar RSUExampleScenario.node[74].veinsmobility 	totalCO2Emission 	383.9914985042
scalar RSUExampleScenario.node[75].appl 	meanClusterNodes 	0
scalar RSUExampleScenario.node[75].appl 	meanClusterHeadUtility 	0
scalar RSUExampleScenario.node[75].appl 	NumberofCH 	0.054054054054054
scalar RSUExampleScenario.node[75].appl 	NumberofON 	0
scalar RSUExampleScenario.node[75].appl 	NumberofFN 	0.94594594594595
scalar RSUExampleScenario.node[75].veinsmobility 	startTime 	180.8
scalar RSUExampleScenario.node[75].veinsmobility 	totalTime 	269.2
scalar RSUExampleScenario.node[75].veinsmobility 	stopTime 	450
scalar RSUExampleScenario.node[75].veinsmobility 	minSpeed 	0
scalar RSUExampleScenario.node[75].veinsmobility 	maxSpeed 	13.999632742391
scalar RSUExampleScenario.node[75].veinsmobility 	totalDistance 	657.47724271881
scalar RSUExampleScenario.node[75].veinsmobility 	totalCO2Emission 	380.44627853518
scalar RSUExampleScenario.node[76].appl 	meanClusterNodes 	0
scalar RSUExampleScenario.node[76].appl 	meanClusterHeadUtility 	0
scalar RSUExampleScenario.node[76].appl 	NumberofCH 	0.10810810810811
scalar RSUExampleScenario.node[76].appl 	NumberofON 	0
scalar RSUExampleScenario.node[76].appl 	NumberofFN 	0.89189189189189
scalar RSUExampleScenario.node[76].veinsmobility 	startTime 	183.2
scalar RSUExampleScenario.node[76].veinsmobility 	totalTime 	266.8
scalar RSUExampleScenario.node[76].veinsmobility 	stopTime 	450
scalar RSUExampleScenario.node[76].veinsmobility 	minSpeed 	0
scalar RSUExampleScenario.node[76].veinsmobility 	maxSpeed 	13.999790051549
scalar RSUExampleScenario.node[76].veinsmobility 	totalDistance 	623.91199033035
scalar RSUExampleScenario.node[76].veinsmobility 	totalCO2Emission 	373.17104059444
scalar RSUExampleScenario.node[77].appl 	meanClusterNodes 	0
scalar RSUExampleScenario.node[77].appl 	meanClusterHeadUtility 	0
scalar RSUExampleScenario.node[77].appl 	NumberofCH 	0.10810810810811
scalar RSUExampleScenario.node[77].appl 	NumberofON 	0
scalar RSUExampleScenario.node[77].appl 	NumberofFN 	0.89189189189189
scalar RSUExampleScenario.node[77].veinsmobility 	startTime 	185.6
scalar RSUExampleScenario.node[77].veinsmobility 	totalTime 	264.4
scalar RSUExampleScenario.node[77].veinsmobility 	stopTime 	450
scalar RSUExampleScenario.node[77].veinsmobility 	minSpeed 	0
scalar RSUExampleScenario.node[77].veinsmobility 	maxSpeed 	13.999582815988
scalar RSUExampleScenario.node[77].veinsmobility 	totalDistance 	591.58912216937
scalar RSUExampleScenario.node[77].veinsmobility 	totalCO2Emission 	367.46385437573
scalar RSUExampleScenario.node[78].appl 	meanClusterNodes 	0
scalar RSUExampleScenario.node[78].appl 	meanClusterHeadUtility 	0
scalar RSUExampleScenario.node[78].appl 	NumberofCH 	0.054054054054054
scalar RSUExampleScenario.node[78].appl 	NumberofON 	0
scalar RSUExampleScenario.node[78].appl 	NumberofFN 	0.94594594594595
scalar RSUExampleScenario.node[78].veinsmobility 	startTime 	188
scalar RSUExampleScenario.node[78].veinsmobility 	totalTime 	262
scalar RSUExampleScenario.node[78].veinsmobility 	stopTime 	450
scalar RSUExampleScenario.node[78].veinsmobility 	minSpeed 	0
scalar RSUExampleScenario.node[78].veinsmobility 	maxSpeed 	13.99955893812
scalar RSUExampleScenario.node[78].veinsmobility 	totalDistance 	558.34647213949
scalar RSUExampleScenario.node[78].veinsmobility 	totalCO2Emission 	362.98399419116
scalar RSUExampleScenario.node[79].appl 	meanClusterNodes 	0
scalar RSUExampleScenario.node[79].appl 	meanClusterHeadUtility 	0
scalar RSUExampleScenario.node[79].appl 	NumberofCH 	0.16216216216216
scalar RSUExampleScenario.node[79].appl 	NumberofON 	0
scalar RSUExampleScenario.node[79].appl 	NumberofFN 	0.83783783783784
scalar RSUExampleScenario.node[79].veinsmobility 	startTime 	190.4
scalar RSUExampleScenario.node[79].veinsmobility 	totalTime 	259.6
scalar RSUExampleScenario.node[79].veinsmobility 	stopTime 	450
scalar RSUExampleScenario.node[79].veinsmobility 	minSpeed 	0
scalar RSUExampleScenario.node[79].veinsmobility 	maxSpeed 	13.998036453638
scalar RSUExampleScenario.node[79].veinsmobility 	totalDistance 	524.4051649448
scalar RSUExampleScenario.node[79].veinsmobility 	totalCO2Emission 	355.51105938241
scalar RSUExampleScenario.node[8].appl 	meanClusterNodes 	0
scalar RSUExampleScenario.node[8].appl 	meanClusterHeadUtility 	0
scalar RSUExampleScenario.node[8].appl 	NumberofCH 	0.054054054054054
scalar RSUExampleScenario.node[8].appl 	NumberofON 	0
scalar RSUExampleScenario.node[8].appl 	NumberofFN 	0.94594594594595
scalar RSUExampleScenario.node[8].veinsmobility 	startTime 	19.3
scalar RSUExampleScenario.node[8].veinsmobility 	totalTime 	430.7
scalar RSUExampleScenario.node[8].veinsmobility 	stopTime 	450
scalar RSUExampleScenario.node[8].veinsmobility 	minSpeed 	0
scalar RSUExampleScenario.node[8].veinsmobility 	maxSpeed 	13.999987382973
scalar RSUExampleScenario.node[8].veinsmobility 	totalDistance 	2860.3943668795
scalar RSUExampleScenario.node[8].veinsmobility 	totalCO2Emission 	771.51159175568
scalar RSUExampleScenario.node[80].appl 	meanClusterNodes 	0
scalar RSUExampleScenario.node[80].appl 	meanClusterHeadUtility 	0
scalar RSUExampleScenario.node[80].appl 	NumberofCH 	0.16216216216216
scalar RSUExampleScenario.node[80].appl 	NumberofON 	0
scalar RSUExampleScenario.node[80].appl 	NumberofFN 	0.83783783783784
scalar RSUExampleScenario.node[80].veinsmobility 	startTime 	192.9
scalar RSUExampleScenario.node[80].veinsmobility 	totalTime 	257.1
scalar RSUExampleScenario.node[80].veinsmobility 	stopTime 	450
scalar RSUExampleScenario.node[80].veinsmobility 	minSpeed 	0
scalar RSUExampleScenario.node[80].veinsmobility 	maxSpeed 	13.999893713824
scalar RSUExampleScenario.node[80].veinsmobility 	totalDistance 	490.53819685017
scalar RSUExampleScenario.node[80].veinsmobility 	totalCO2Emission 	351.12326080904
scalar RSUExampleScenario.node[81].appl 	meanClusterNodes 	0
scalar RSUExampleScenario.node[81].appl 	meanClusterHeadUtility 	0
scalar RSUExampleScenario.node[81].appl 	NumberofCH 	0.054054054054054
scalar RSUExampleScenario.node[81].appl 	NumberofON 	0
scalar RSUExampleScenario.node[81].appl 	NumberofFN 	0.94594594594595
scalar RSUExampleScenario.node[81].veinsmobility 	startTime 	195.3
scalar RSUExampleScenario.node[81].veinsmobility 	totalTime 	254.7
scalar RSUExampleScenario.node[81].veinsmobility 	stopTime 	450
scalar RSUExampleScenario.node[81].veinsmobility 	minSpeed 	0
scalar RSUExampleScenario.node[81].veinsmobility 	maxSpeed 	13.999842597223
scalar RSUExampleScenario.node[81].veinsmobility 	totalDistance 	457.4517499352
scalar RSUExampleScenario.node[81].veinsmobility 	totalCO2Emission 	345.39291058835
scalar RSUExampleScenario.node[82].appl 	meanClusterNodes 	0
scalar RSUExampleScenario.node[82].appl 	meanClusterHeadUtility 	0
scalar RSUExampleScenario.node[82].appl 	NumberofCH 	0.10810810810811
scalar RSUExampleScenario.node[82].appl 	NumberofON 	0
scalar RSUExampleScenario.node[82].appl 	NumberofFN 	0.89189189189189
scalar RSUExampleScenario.node[82].veinsmobility 	startTime 	197.7
scalar RSUExampleScenario.node[82].veinsmobility 	totalTime 	252.3
scalar RSUExampleScenario.node[82].veinsmobility 	stopTime 	450
scalar RSUExampleScenario.node[82].veinsmobility 	minSpeed 	0
scalar RSUExampleScenario.node[82].veinsmobility 	maxSpeed 	13.999831428216
scalar RSUExampleScenario.node[82].veinsmobility 	totalDistance 	422.16741855276
scalar RSUExampleScenario.node[82].veinsmobility 	totalCO2Emission 	339.10212742637
scalar RSUExampleScenario.node[83].appl 	meanClusterNodes 	0
scalar RSUExampleScenario.node[83].appl 	meanClusterHeadUtility 	0
scalar RSUExampleScenario.node[83].appl 	NumberofCH 	0.054054054054054
scalar RSUExampleScenario.node[83].appl 	NumberofON 	0
scalar RSUExampleScenario.node[83].appl 	NumberofFN 	0.94594594594595
scalar RSUExampleScenario.node[83].veinsmobility 	startTime 	200.1
scalar RSUExampleScenario.node[83].veinsmobility 	totalTime 	249.9
scalar RSUExampleScenario.node[83].veinsmobility 	stopTime 	450
scalar RSUExampleScenario.node[83].veinsmobility 	minSpeed 	0
scalar RSUExampleScenario.node[83].veinsmobility 	maxSpeed 	13.99853063365
scalar RSUExampleScenario.node[83].veinsmobility 	totalDistance 	387.79962217333
scalar RSUExampleScenario.node[83].veinsmobility 	totalCO2Emission 	333.55787123591
scalar RSUExampleScenario.node[84].appl 	meanClusterNodes 	0
scalar RSUExampleScenario.node[84].appl 	meanClusterHeadUtility 	0
scalar RSUExampleScenario.node[84].appl 	NumberofCH 	0.10810810810811
scalar RSUExampleScenario.node[84].appl 	NumberofON 	0
scalar RSUExampleScenario.node[84].appl 	NumberofFN 	0.89189189189189
scalar RSUExampleScenario.node[84].veinsmobility 	startTime 	202.5
scalar RSUExampleScenario.node[84].veinsmobility 	totalTime 	247.5
scalar RSUExampleScenario.node[84].veinsmobility 	stopTime 	450
scalar RSUExampleScenario.node[84].veinsmobility 	minSpeed 	0
scalar RSUExampleScenario.node[84].veinsmobility 	maxSpeed 	13.998265907564
scalar RSUExampleScenario.node[84].veinsmobility 	totalDistance 	356.13295044912
scalar RSUExampleScenario.node[84].veinsmobility 	totalCO2Emission 	329.72610905551
scalar RSUExampleScenario.node[85].appl 	meanClusterNodes 	0
scalar RSUExampleScenario.node[85].appl 	meanCluste