version 2
run statisticRVV-104-20150327-05:08:53-8660
attr c 5
attr configname statisticRVV
attr datetime 20150327-05:08:53
attr experiment statisticRVV
attr inifile omnetpp.ini
attr iterationvars "$sc=\"erlangen-low.launchd.xml\", $p=1/5, $c=5"
attr iterationvars2 "$sc=\"erlangen-low.launchd.xml\", $p=1/5, $c=5, $repetition=4"
attr measurement "$sc=\"erlangen-low.launchd.xml\", $p=1/5, $c=5"
attr network RSUExampleScenario
attr p 1/5
attr processid 8660
attr repetition 4
attr replication #4
attr resultdir results
attr runnumber 104
attr sc "\"erlangen-low.launchd.xml\""
attr seedset 104

scalar . 	c 	5
scalar RSUExampleScenario.node[0].veinsmobility 	startTime 	0.1
scalar RSUExampleScenario.node[0].veinsmobility 	totalTime 	226.8
scalar RSUExampleScenario.node[0].veinsmobility 	stopTime 	227
scalar RSUExampleScenario.node[0].veinsmobility 	minSpeed 	0.25807703188038
scalar RSUExampleScenario.node[0].veinsmobility 	maxSpeed 	18.999963413544
scalar RSUExampleScenario.node[0].veinsmobility 	totalDistance 	3409.0626169495
scalar RSUExampleScenario.node[0].veinsmobility 	totalCO2Emission 	704.11352120283
scalar RSUExampleScenario.node[1].veinsmobility 	startTime 	6.1
scalar RSUExampleScenario.node[1].veinsmobility 	totalTime 	227.1
scalar RSUExampleScenario.node[1].veinsmobility 	stopTime 	233.3
scalar RSUExampleScenario.node[1].veinsmobility 	minSpeed 	0.25731591500924
scalar RSUExampleScenario.node[1].veinsmobility 	maxSpeed 	18.999598621051
scalar RSUExampleScenario.node[1].veinsmobility 	totalDistance 	3409.2361277499
scalar RSUExampleScenario.node[1].veinsmobility 	totalCO2Emission 	705.50321825672
scalar RSUExampleScenario.node[2].veinsmobility 	startTime 	12.1
scalar RSUExampleScenario.node[2].veinsmobility 	totalTime 	226.9
scalar RSUExampleScenario.node[2].veinsmobility 	stopTime 	239.1
scalar RSUExampleScenario.node[2].veinsmobility 	minSpeed 	0.25818407112989
scalar RSUExampleScenario.node[2].veinsmobility 	maxSpeed 	18.999831235439
scalar RSUExampleScenario.node[2].veinsmobility 	totalDistance 	3409.2994983496
scalar RSUExampleScenario.node[2].veinsmobility 	totalCO2Emission 	707.28512943838
scalar RSUExampleScenario.node[3].veinsmobility 	startTime 	18.1
scalar RSUExampleScenario.node[3].veinsmobility 	totalTime 	227.2
scalar RSUExampleScenario.node[3].veinsmobility 	stopTime 	245.4
scalar RSUExampleScenario.node[3].veinsmobility 	minSpeed 	0.25674505297653
scalar RSUExampleScenario.node[3].veinsmobility 	maxSpeed 	18.999867525934
scalar RSUExampleScenario.node[3].veinsmobility 	totalDistance 	3409.4289499271
scalar RSUExampleScenario.node[3].veinsmobility 	totalCO2Emission 	707.69799519016
scalar RSUExampleScenario.node[4].veinsmobility 	startTime 	24.1
scalar RSUExampleScenario.node[4].veinsmobility 	totalTime 	226.9
scalar RSUExampleScenario.node[4].veinsmobility 	stopTime 	251.1
scalar RSUExampleScenario.node[4].veinsmobility 	minSpeed 	0.25643812648114
scalar RSUExampleScenario.node[4].veinsmobility 	maxSpeed 	18.999855836076
scalar RSUExampleScenario.node[4].veinsmobility 	totalDistance 	3409.5708370319
scalar RSUExampleScenario.node[4].veinsmobility 	totalCO2Emission 	705.01546876142
scalar RSUExampleScenario.node[5].veinsmobility 	startTime 	30.1
scalar RSUExampleScenario.node[5].veinsmobility 	totalTime 	227.2
scalar RSUExampleScenario.node[5].veinsmobility 	stopTime 	257.4
scalar RSUExampleScenario.node[5].veinsmobility 	minSpeed 	0.2498595249739
scalar RSUExampleScenario.node[5].veinsmobility 	maxSpeed 	18.999745560035
scalar RSUExampleScenario.node[5].veinsmobility 	totalDistance 	3409.4063797114
scalar RSUExampleScenario.node[5].veinsmobility 	totalCO2Emission 	706.39925716718
scalar RSUExampleScenario.node[6].veinsmobility 	startTime 	36.1
scalar RSUExampleScenario.node[6].veinsmobility 	totalTime 	226.8
scalar RSUExampleScenario.node[6].veinsmobility 	stopTime 	263
scalar RSUExampleScenario.node[6].veinsmobility 	minSpeed 	0.25402792764548
scalar RSUExampleScenario.node[6].veinsmobility 	maxSpeed 	18.999677858516
scalar RSUExampleScenario.node[6].veinsmobility 	totalDistance 	3409.2604706799
scalar RSUExampleScenario.node[6].veinsmobility 	totalCO2Emission 	706.34775921093
scalar RSUExampleScenario.node[7].veinsmobility 	startTime 	42.1
scalar RSUExampleScenario.node[7].veinsmobility 	totalTime 	226.7
scalar RSUExampleScenario.node[7].veinsmobility 	stopTime 	268.9
scalar RSUExampleScenario.node[7].veinsmobility 	minSpeed 	0.25054937990312
scalar RSUExampleScenario.node[7].veinsmobility 	maxSpeed 	18.999904434956
scalar RSUExampleScenario.node[7].veinsmobility 	totalDistance 	3409.8027984629
scalar RSUExampleScenario.node[7].veinsmobility 	totalCO2Emission 	707.71369190989
scalar RSUExampleScenario.node[8].veinsmobility 	startTime 	48.1
scalar RSUExampleScenario.node[8].veinsmobility 	totalTime 	227.1
scalar RSUExampleScenario.node[8].veinsmobility 	stopTime 	275.3
scalar RSUExampleScenario.node[8].veinsmobility 	minSpeed 	0.25284868676239
scalar RSUExampleScenario.node[8].veinsmobility 	maxSpeed 	18.999804725619
scalar RSUExampleScenario.node[8].veinsmobility 	totalDistance 	3409.4152825141
scalar RSUExampleScenario.node[8].veinsmobility 	totalCO2Emission 	711.37630654185
scalar RSUExampleScenario.node[9].veinsmobility 	startTime 	54.1
scalar RSUExampleScenario.node[9].veinsmobility 	totalTime 	226.8
scalar RSUExampleScenario.node[9].veinsmobility 	stopTime 	281
scalar RSUExampleScenario.node[9].veinsmobility 	minSpeed 	0.24847245678701
scalar RSUExampleScenario.node[9].veinsmobility 	maxSpeed 	18.999915671551
scalar RSUExampleScenario.node[9].veinsmobility 	totalDistance 	3408.9729399687
scalar RSUExampleScenario.node[9].veinsmobility 	totalCO2Emission 	709.48989081343
scalar RSUExampleScenario.node[10].veinsmobility 	startTime 	60.1
scalar RSUExampleScenario.node[10].veinsmobility 	totalTime 	226.7
scalar RSUExampleScenario.node[10].veinsmobility 	stopTime 	286.9
scalar RSUExampleScenario.node[10].veinsmobility 	minSpeed 	0.2531331799177
scalar RSUExampleScenario.node[10].veinsmobility 	maxSpeed 	18.999872002841
scalar RSUExampleScenario.node[10].veinsmobility 	totalDistance 	3409.2561711767
scalar RSUExampleScenario.node[10].veinsmobility 	totalCO2Emission 	706.24545307966
scalar RSUExampleScenario.node[11].veinsmobility 	startTime 	66.1
scalar RSUExampleScenario.node[11].veinsmobility 	totalTime 	226.9
scalar RSUExampleScenario.node[11].veinsmobility 	stopTime 	293.1
scalar RSUExampleScenario.node[11].veinsmobility 	minSpeed 	0.259198739368
scalar RSUExampleScenario.node[11].veinsmobility 	maxSpeed 	18.999742009297
scalar RSUExampleScenario.node[11].veinsmobility 	totalDistance 	3409.6993621982
scalar RSUExampleScenario.node[11].veinsmobility 	totalCO2Emission 	705.46047061955
scalar RSUExampleScenario.node[12].veinsmobility 	startTime 	72.1
scalar RSUExampleScenario.node[12].veinsmobility 	totalTime 	226.6
scalar RSUExampleScenario.node[12].veinsmobility 	stopTime 	298.8
scalar RSUExampleScenario.node[12].veinsmobility 	minSpeed 	0.25216796260327
scalar RSUExampleScenario.node[12].veinsmobility 	maxSpeed 	18.999629208967
scalar RSUExampleScenario.node[12].veinsmobility 	totalDistance 	3409.4810884495
scalar RSUExampleScenario.node[12].veinsmobility 	totalCO2Emission 	707.3383914004
scalar RSUExampleScenario.node[13].veinsmobility 	startTime 	78.1
scalar RSUExampleScenario.node[13].veinsmobility 	totalTime 	227
scalar RSUExampleScenario.node[13].veinsmobility 	stopTime 	305.2
scalar RSUExampleScenario.node[13].veinsmobility 	minSpeed 	0.25789572314406
scalar RSUExampleScenario.node[13].veinsmobility 	maxSpeed 	18.999923763333
scalar RSUExampleScenario.node[13].veinsmobility 	totalDistance 	3409.3274579734
scalar RSUExampleScenario.node[13].veinsmobility 	totalCO2Emission 	706.78016389306
scalar RSUExampleScenario.node[14].veinsmobility 	startTime 	84.1
scalar RSUExampleScenario.node[14].veinsmobility 	totalTime 	226.8
scalar RSUExampleScenario.node[14].veinsmobility 	stopTime 	311
scalar RSUExampleScenario.node[14].veinsmobility 	minSpeed 	0.25030703272973
scalar RSUExampleScenario.node[14].veinsmobility 	maxSpeed 	18.999521531765
scalar RSUExampleScenario.node[14].veinsmobility 	totalDistance 	3409.6668744363
scalar RSUExampleScenario.node[14].veinsmobility 	totalCO2Emission 	704.28737958023
scalar RSUExampleScenario.node[15].veinsmobility 	startTime 	90.1
scalar RSUExampleScenario.node[15].veinsmobility 	totalTime 	226.8
scalar RSUExampleScenario.node[15].veinsmobility 	stopTime 	317
scalar RSUExampleScenario.node[15].veinsmobility 	minSpeed 	0.25965970678162
scalar RSUExampleScenario.node[15].veinsmobility 	maxSpeed 	18.999623741359
scalar RSUExampleScenario.node[15].veinsmobility 	totalDistance 	3409.3754595302
scalar RSUExampleScenario.node[15].veinsmobility 	totalCO2Emission 	704.38400623951
scalar RSUExampleScenario.node[16].veinsmobility 	startTime 	96.1
scalar RSUExampleScenario.node[16].veinsmobility 	totalTime 	227
scalar RSUExampleScenario.node[16].veinsmobility 	stopTime 	323.2
scalar RSUExampleScenario.node[16].veinsmobility 	minSpeed 	0.24857790548424
scalar RSUExampleScenario.node[16].veinsmobility 	maxSpeed 	18.999956152316
scalar RSUExampleScenario.node[16].veinsmobility 	totalDistance 	3409.4187398104
scalar RSUExampleScenario.node[16].veinsmobility 	totalCO2Emission 	710.72972434653
scalar RSUExampleScenario.node[17].veinsmobility 	startTime 	102.1
scalar RSUExampleScenario.node[17].veinsmobility 	totalTime 	226.6
scalar RSUExampleScenario.node[17].veinsmobility 	stopTime 	328.8
scalar RSUExampleScenario.node[17].veinsmobility 	minSpeed 	0.25914283335488
scalar RSUExampleScenario.node[17].veinsmobility 	maxSpeed 	18.999938952473
scalar RSUExampleScenario.node[17].veinsmobility 	totalDistance 	3409.4552941527
scalar RSUExampleScenario.node[17].veinsmobility 	totalCO2Emission 	706.72290627543
scalar RSUExampleScenario.node[18].veinsmobility 	startTime 	108.1
scalar RSUExampleScenario.node[18].veinsmobility 	totalTime 	227
scalar RSUExampleScenario.node[18].veinsmobility 	stopTime 	335.2
scalar RSUExampleScenario.node[18].veinsmobility 	minSpeed 	0.25606733997632
scalar RSUExampleScenario.node[18].veinsmobility 	maxSpeed 	18.999765130405
scalar RSUExampleScenario.node[18].veinsmobility 	totalDistance 	3410.0633835438
scalar RSUExampleScenario.node[18].veinsmobility 	totalCO2Emission 	706.3631526375
scalar RSUExampleScenario.node[19].veinsmobility 	startTime 	114.1
scalar RSUExampleScenario.node[19].veinsmobility 	totalTime 	227.2
scalar RSUExampleScenario.node[19].veinsmobility 	stopTime 	341.4
scalar RSUExampleScenario.node[19].veinsmobility 	minSpeed 	0.25891719115432
scalar RSUExampleScenario.node[19].veinsmobility 	maxSpeed 	18.999971188693
scalar RSUExampleScenario.node[19].veinsmobility 	totalDistance 	3409.2806657037
scalar RSUExampleScenario.node[19].veinsmobility 	totalCO2Emission 	704.39172575276
scalar RSUExampleScenario.node[20].veinsmobility 	startTime 	120.1
scalar RSUExampleScenario.node[20].veinsmobility 	totalTime 	227.1
scalar RSUExampleScenario.node[20].veinsmobility 	stopTime 	347.3
scalar RSUExampleScenario.node[20].veinsmobility 	minSpeed 	0.25043313928647
scalar RSUExampleScenario.node[20].veinsmobility 	maxSpeed 	18.999992838958
scalar RSUExampleScenario.node[20].veinsmobility 	totalDistance 	3409.9921091135
scalar RSUExampleScenario.node[20].veinsmobility 	totalCO2Emission 	707.67816060437
scalar RSUExampleScenario.node[21].veinsmobility 	startTime 	126.1
scalar RSUExampleScenario.node[21].veinsmobility 	totalTime 	226.8
scalar RSUExampleScenario.node[21].veinsmobility 	stopTime 	353
scalar RSUExampleScenario.node[21].veinsmobility 	minSpeed 	0.25742113147234
scalar RSUExampleScenario.node[21].veinsmobility 	maxSpeed 	18.999820004716
scalar RSUExampleScenario.node[21].veinsmobility 	totalDistance 	3409.4094612785
scalar RSUExampleScenario.node[21].veinsmobility 	totalCO2Emission 	702.28738723789
scalar RSUExampleScenario.node[22].veinsmobility 	startTime 	132.1
scalar RSUExampleScenario.node[22].veinsmobility 	totalTime 	226.9
scalar RSUExampleScenario.node[22].veinsmobility 	stopTime 	359.1
scalar RSUExampleScenario.node[22].veinsmobility 	minSpeed 	0.25697580176429
scalar RSUExampleScenario.node[22].veinsmobility 	maxSpeed 	18.999489396065
scalar RSUExampleScenario.node[22].veinsmobility 	totalDistance 	3409.3629631308
scalar RSUExampleScenario.node[22].veinsmobility 	totalCO2Emission 	706.42317643335
scalar RSUExampleScenario.node[23].veinsmobility 	startTime 	138.1
scalar RSUExampleScenario.node[23].veinsmobility 	totalTime 	226.9
scalar RSUExampleScenario.node[23].veinsmobility 	stopTime 	365.1
scalar RSUExampleScenario.node[23].veinsmobility 	minSpeed 	0.24917696907208
scalar RSUExampleScenario.node[23].veinsmobility 	maxSpeed 	18.999705073852
scalar RSUExampleScenario.node[23].veinsmobility 	totalDistance 	3409.3354091778
scalar RSUExampleScenario.node[23].veinsmobility 	totalCO2Emission 	705.63365899081
scalar RSUExampleScenario.node[24].veinsmobility 	startTime 	144.1
scalar RSUExampleScenario.node[24].veinsmobility 	totalTime 	226.8
scalar RSUExampleScenario.node[24].veinsmobility 	stopTime 	371
scalar RSUExampleScenario.node[24].veinsmobility 	minSpeed 	0.25305753959389
scalar RSUExampleScenario.node[24].veinsmobility 	maxSpeed 	18.999977233724
scalar RSUExampleScenario.node[24].veinsmobility 	totalDistance 	3409.2067828282
scalar RSUExampleScenario.node[24].veinsmobility 	totalCO2Emission 	702.79832772282
scalar RSUExampleScenario.node[25].veinsmobility 	startTime 	150.1
scalar RSUExampleScenario.node[25].veinsmobility 	totalTime 	227.2
scalar RSUExampleScenario.node[25].veinsmobility 	stopTime 	377.4
scalar RSUExampleScenario.node[25].veinsmobility 	minSpeed 	0.25148548573116
scalar RSUExampleScenario.node[25].veinsmobility 	maxSpeed 	18.999950508669
scalar RSUExampleScenario.node[25].veinsmobility 	totalDistance 	3409.8486624673
scalar RSUExampleScenario.node[25].veinsmobility 	totalCO2Emission 	704.72793075026
scalar RSUExampleScenario.node[26].veinsmobility 	startTime 	156.1
scalar RSUExampleScenario.node[26].veinsmobility 	totalTime 	226.9
scalar RSUExampleScenario.node[26].veinsmobility 	stopTime 	383.1
scalar RSUExampleScenario.node[26].veinsmobility 	minSpeed 	0.24705351764522
scalar RSUExampleScenario.node[26].veinsmobility 	maxSpeed 	18.999175062934
scalar RSUExampleScenario.node[26].veinsmobility 	totalDistance 	3409.5938805913
scalar RSUExampleScenario.node[26].veinsmobility 	totalCO2Emission 	705.34099541614
scalar RSUExampleScenario.node[27].veinsmobility 	startTime 	162.1
scalar RSUExampleScenario.node[27].veinsmobility 	totalTime 	226.8
scalar RSUExampleScenario.node[27].veinsmobility 	stopTime 	389
scalar RSUExampleScenario.node[27].veinsmobility 	minSpeed 	0.25756484778156
scalar RSUExampleScenario.node[27].veinsmobility 	maxSpeed 	18.999800029874
scalar RSUExampleScenario.node[27].veinsmobility 	totalDistance 	3409.2422000638
scalar RSUExampleScenario.node[27].veinsmobility 	totalCO2Emission 	708.35353267326
scalar RSUExampleScenario.node[28].veinsmobility 	startTime 	168.1
scalar RSUExampleScenario.node[28].veinsmobility 	totalTime 	226.7
scalar RSUExampleScenario.node[28].veinsmobility 	stopTime 	394.9
scalar RSUExampleScenario.node[28].veinsmobility 	minSpeed 	0.25249550874485
scalar RSUExampleScenario.node[28].veinsmobility 	maxSpeed 	18.999915075575
scalar RSUExampleScenario.node[28].veinsmobility 	totalDistance 	3409.4230269149
scalar RSUExampleScenario.node[28].veinsmobility 	totalCO2Emission 	707.88333745056
scalar RSUExampleScenario.node[29].veinsmobility 	startTime 	174.1
scalar RSUExampleScenario.node[29].veinsmobility 	totalTime 	227
scalar RSUExampleScenario.node[29].veinsmobility 	stopTime 	401.2
scalar RSUExampleScenario.node[29].veinsmobility 	minSpeed 	0.25720992740872
scalar RSUExampleScenario.node[29].veinsmobility 	maxSpeed 	18.999852341183
scalar RSUExampleScenario.node[29].veinsmobility 	totalDistance 	3409.5934806876
scalar RSUExampleScenario.node[29].veinsmobility 	totalCO2Emission 	704.47043899599
scalar RSUExampleScenario.node[30].veinsmobility 	startTime 	180.1
scalar RSUExampleScenario.node[30].veinsmobility 	totalTime 	226.8
scalar RSUExampleScenario.node[30].veinsmobility 	stopTime 	407
scalar RSUExampleScenario.node[30].veinsmobility 	minSpeed 	0.25577875972912
scalar RSUExampleScenario.node[30].veinsmobility 	maxSpeed 	18.999988123237
scalar RSUExampleScenario.node[30].veinsmobility 	totalDistance 	3409.3500783458
scalar RSUExampleScenario.node[30].veinsmobility 	totalCO2Emission 	705.40643970244
scalar RSUExampleScenario.node[31].veinsmobility 	startTime 	186.1
scalar RSUExampleScenario.node[31].veinsmobility 	totalTime 	227.1
scalar RSUExampleScenario.node[31].veinsmobility 	stopTime 	413.3
scalar RSUExampleScenario.node[31].veinsmobility 	minSpeed 	0.25619244505325
scalar RSUExampleScenario.node[31].veinsmobility 	maxSpeed 	18.999839798706
scalar RSUExampleScenario.node[31].veinsmobility 	totalDistance 	3409.9787795366
scalar RSUExampleScenario.node[31].veinsmobility 	totalCO2Emission 	708.59134686436
scalar RSUExampleScenario.node[32].veinsmobility 	startTime 	192.1
scalar RSUExampleScenario.node[32].veinsmobility 	totalTime 	227
scalar RSUExampleScenario.node[32].veinsmobility 	stopTime 	419.2
scalar RSUExampleScenario.node[32].veinsmobility 	minSpeed 	0.25868096201518
scalar RSUExampleScenario.node[32].veinsmobility 	maxSpeed 	18.999997918198
scalar RSUExampleScenario.node[32].veinsmobility 	totalDistance 	3409.3239520662
scalar RSUExampleScenario.node[32].veinsmobility 	totalCO2Emission 	704.92261061045
scalar RSUExampleScenario.node[33].veinsmobility 	startTime 	198.1
scalar RSUExampleScenario.node[33].veinsmobility 	totalTime 	227
scalar RSUExampleScenario.node[33].veinsmobility 	stopTime 	425.2
scalar RSUExampleScenario.node[33].veinsmobility 	minSpeed 	0.25645595559175
scalar RSUExampleScenario.node[33].veinsmobility 	maxSpeed 	18.999691689773
scalar RSUExampleScenario.node[33].veinsmobility 	totalDistance 	3409.2857977944
scalar RSUExampleScenario.node[33].veinsmobility 	totalCO2Emission 	709.5016237184
scalar RSUExampleScenario.node[34].veinsmobility 	startTime 	204.1
scalar RSUExampleScenario.node[34].veinsmobility 	totalTime 	227.2
scalar RSUExampleScenario.node[34].veinsmobility 	stopTime 	431.4
scalar RSUExampleScenario.node[34].veinsmobility 	minSpeed 	0.25729094177671
scalar RSUExampleScenario.node[34].veinsmobility 	maxSpeed 	18.999999145686
scalar RSUExampleScenario.node[34].veinsmobility 	totalDistance 	3409.690110816
scalar RSUExampleScenario.node[34].veinsmobility 	totalCO2Emission 	709.60405417909
scalar RSUExampleScenario.node[35].veinsmobility 	startTime 	210.1
scalar RSUExampleScenario.node[35].veinsmobility 	totalTime 	226.9
scalar RSUExampleScenario.node[35].veinsmobility 	stopTime 	437.1
scalar RSUExampleScenario.node[35].veinsmobility 	minSpeed 	0.25802010904159
scalar RSUExampleScenario.node[35].veinsmobility 	maxSpeed 	18.999870865613
scalar RSUExampleScenario.node[35].veinsmobility 	totalDistance 	3409.6321824847
scalar RSUExampleScenario.node[35].veinsmobility 	totalCO2Emission 	710.82872594802
scalar RSUExampleScenario.node[36].veinsmobility 	startTime 	216.1
scalar RSUExampleScenario.node[36].veinsmobility 	totalTime 	226.9
scalar RSUExampleScenario.node[36].veinsmobility 	stopTime 	443.1
scalar RSUExampleScenario.node[36].veinsmobility 	minSpeed 	0.24868403900065
scalar RSUExampleScenario.node[36].veinsmobility 	maxSpeed 	18.999884171267
scalar RSUExampleScenario.node[36].veinsmobility 	totalDistance 	3409.2852021852
scalar RSUExampleScenario.node[36].veinsmobility 	totalCO2Emission 	709.13984095705
scalar RSUExampleScenario.node[37].veinsmobility 	startTime 	222.1
scalar RSUExampleScenario.node[37].veinsmobility 	totalTime 	226.8
scalar RSUExampleScenario.node[37].veinsmobility 	stopTime 	449
scalar RSUExampleScenario.node[37].veinsmobility 	minSpeed 	0.25271187408385
scalar RSUExampleScenario.node[37].veinsmobility 	maxSpeed 	18.999909290425
scalar RSUExampleScenario.node[37].veinsmobility 	totalDistance 	3409.2214917026
scalar RSUExampleScenario.node[37].veinsmobility 	totalCO2Emission 	709.34012433461
scalar RSUExampleScenario.node[38].veinsmobility 	startTime 	228.1
scalar RSUExampleScenario.node[38].veinsmobility 	totalTime 	226.8
scalar RSUExampleScenario.node[38].veinsmobility 	stopTime 	455
scalar RSUExampleScenario.node[38].veinsmobility 	minSpeed 	0.24782012159633
scalar RSUExampleScenario.node[38].veinsmobility 	maxSpeed 	18.99991019232
scalar RSUExampleScenario.node[38].veinsmobility 	totalDistance 	3409.3336180617
scalar RSUExampleScenario.node[38].veinsmobility 	totalCO2Emission 	704.41203252384
scalar RSUExampleScenario.node[39].veinsmobility 	startTime 	234.1
scalar RSUExampleScenario.node[39].veinsmobility 	totalTime 	226.8
scalar RSUExampleScenario.node[39].veinsmobility 	stopTime 	461
scalar RSUExampleScenario.node[39].veinsmobility 	minSpeed 	0.24782684081327
scalar RSUExampleScenario.node[39].veinsmobility 	maxSpeed 	18.999991118587
scalar RSUExampleScenario.node[39].veinsmobility 	totalDistance 	3409.8414149569
scalar RSUExampleScenario.node[39].veinsmobility 	totalCO2Emission 	706.91386989586
scalar RSUExampleScenario.node[40].veinsmobility 	startTime 	240.1
scalar RSUExampleScenario.node[40].veinsmobility 	totalTime 	226.9
scalar RSUExampleScenario.node[40].veinsmobility 	stopTime 	467.1
scalar RSUExampleScenario.node[40].veinsmobility 	minSpeed 	0.25010843734257
scalar RSUExampleScenario.node[40].veinsmobility 	maxSpeed 	18.999927400576
scalar RSUExampleScenario.node[40].veinsmobility 	totalDistance 	3409.4180100619
scalar RSUExampleScenario.node[40].veinsmobility 	totalCO2Emission 	704.83847233007
scalar RSUExampleScenario.node[41].veinsmobility 	startTime 	246.1
scalar RSUExampleScenario.node[41].veinsmobility 	totalTime 	226.8
scalar RSUExampleScenario.node[41].veinsmobility 	stopTime 	473
scalar RSUExampleScenario.node[41].veinsmobility 	minSpeed 	0.251682431828
scalar RSUExampleScenario.node[41].veinsmobility 	maxSpeed 	18.999612544596
scalar RSUExampleScenario.node[41].veinsmobility 	totalDistance 	3409.7746387892
scalar RSUExampleScenario.node[41].veinsmobility 	totalCO2Emission 	708.94812958882
scalar RSUExampleScenario.node[42].veinsmobility 	startTime 	252.1
scalar RSUExampleScenario.node[42].veinsmobility 	totalTime 	226.8
scalar RSUExampleScenario.node[42].veinsmobility 	stopTime 	479
scalar RSUExampleScenario.node[42].veinsmobility 	minSpeed 	0.25815200797631
scalar RSUExampleScenario.node[42].veinsmobility 	maxSpeed 	18.999718424727
scalar RSUExampleScenario.node[42].veinsmobility 	totalDistance 	3409.3212501694
scalar RSUExampleScenario.node[42].veinsmobility 	totalCO2Emission 	705.8903856766
scalar RSUExampleScenario.node[43].veinsmobility 	startTime 	258.1
scalar RSUExampleScenario.node[43].veinsmobility 	totalTime 	227.1
scalar RSUExampleScenario.node[43].veinsmobility 	stopTime 	485.3
scalar RSUExampleScenario.node[43].veinsmobility 	minSpeed 	0.25680086627882
scalar RSUExampleScenario.node[43].veinsmobility 	maxSpeed 	18.999879626529
scalar RSUExampleScenario.node[43].veinsmobility 	totalDistance 	3409.3801390524
scalar RSUExampleScenario.node[43].veinsmobility 	totalCO2Emission 	705.69700174982
scalar RSUExampleScenario.node[44].veinsmobility 	startTime 	264.1
scalar RSUExampleScenario.node[44].veinsmobility 	totalTime 	226.9
scalar RSUExampleScenario.node[44].veinsmobility 	stopTime 	491.1
scalar RSUExampleScenario.node[44].veinsmobility 	minSpeed 	0.25694608837483
scalar RSUExampleScenario.node[44].veinsmobility 	maxSpeed 	18.999808049165
scalar RSUExampleScenario.node[44].veinsmobility 	totalDistance 	3409.4600561385
scalar RSUExampleScenario.node[44].veinsmobility 	totalCO2Emission 	710.10931769813
scalar RSUExampleScenario.node[45].veinsmobility 	startTime 	270.1
scalar RSUExampleScenario.node[45].veinsmobility 	totalTime 	226.9
scalar RSUExampleScenario.node[45].veinsmobility 	stopTime 	497.1
scalar RSUExampleScenario.node[45].veinsmobility 	minSpeed 	0.25929592920677
scalar RSUExampleScenario.node[45].veinsmobility 	maxSpeed 	18.999466987315
scalar RSUExampleScenario.node[45].veinsmobility 	totalDistance 	3409.2889497131
scalar RSUExampleScenario.node[45].veinsmobility 	totalCO2Emission 	706.57161665072
scalar RSUExampleScenario.node[46].veinsmobility 	startTime 	276.1
scalar RSUExampleScenario.node[46].veinsmobility 	totalTime 	226.9
scalar RSUExampleScenario.node[46].veinsmobility 	stopTime 	503.1
scalar RSUExampleScenario.node[46].veinsmobility 	minSpeed 	0.25447279848484
scalar RSUExampleScenario.node[46].veinsmobility 	maxSpeed 	18.999428242268
scalar RSUExampleScenario.node[46].veinsmobility 	totalDistance 	3409.4816320933
scalar RSUExampleScenario.node[46].veinsmobility 	totalCO2Emission 	705.13013638608
scalar RSUExampleScenario.node[47].veinsmobility 	startTime 	282.1
scalar RSUExampleScenario.node[47].veinsmobility 	totalTime 	226.6
scalar RSUExampleScenario.node[47].veinsmobility 	stopTime 	508.8
scalar RSUExampleScenario.node[47].veinsmobility 	minSpeed 	0.250417954284
scalar RSUExampleScenario.node[47].veinsmobility 	maxSpeed 	18.999998811346
scalar RSUExampleScenario.node[47].veinsmobility 	totalDistance 	3409.4557577375
scalar RSUExampleScenario.node[47].veinsmobility 	totalCO2Emission 	709.39151877535
scalar RSUExampleScenario.node[48].veinsmobility 	startTime 	288.1
scalar RSUExampleScenario.node[48].veinsmobility 	totalTime 	226.8
scalar RSUExampleScenario.node[48].veinsmobility 	stopTime 	515
scalar RSUExampleScenario.node[48].veinsmobility 	minSpeed 	0.24830626048567
scalar RSUExampleScenario.node[48].veinsmobility 	maxSpeed 	18.99989571257
scalar RSUExampleScenario.node[48].veinsmobility 	totalDistance 	3409.5550912932
scalar RSUExampleScenario.node[48].veinsmobility 	totalCO2Emission 	704.56554330103
scalar RSUExampleScenario.node[49].veinsmobility 	startTime 	294.1
scalar RSUExampleScenario.node[49].veinsmobility 	totalTime 	227
scalar RSUExampleScenario.node[49].veinsmobility 	stopTime 	521.2
scalar RSUExampleScenario.node[49].veinsmobility 	minSpeed 	0.24931291085901
scalar RSUExampleScenario.node[49].veinsmobility 	maxSpeed 	18.999904325719
scalar RSUExampleScenario.node[49].veinsmobility 	totalDistance 	3409.1751345096
scalar RSUExampleScenario.node[49].veinsmobility 	totalCO2Emission 	708.07738998362
scalar RSUExampleScenario.node[50].veinsmobility 	startTime 	300.1
scalar RSUExampleScenario.node[50].veinsmobility 	totalTime 	227
scalar RSUExampleScenario.node[50].veinsmobility 	stopTime 	527.2
scalar RSUExampleScenario.node[50].veinsmobility 	minSpeed 	0.24861272775219
scalar RSUExampleScenario.node[50].veinsmobility 	maxSpeed 	18.999384678286
scalar RSUExampleScenario.node[50].veinsmobility 	totalDistance 	3409.9064639515
scalar RSUExampleScenario.node[50].veinsmobility 	totalCO2Emission 	704.86005029353
scalar RSUExampleScenario.node[51].veinsmobility 	startTime 	306.1
scalar RSUExampleScenario.node[51].veinsmobility 	totalTime 	227.3
scalar RSUExampleScenario.node[51].veinsmobility 	stopTime 	533.5
scalar RSUExampleScenario.node[51].veinsmobility 	minSpeed 	0.25623165967781
scalar RSUExampleScenario.node[51].veinsmobility 	maxSpeed 	18.999817178806
scalar RSUExampleScenario.node[51].veinsmobility 	totalDistance 	3409.1137698364
scalar RSUExampleScenario.node[51].veinsmobility 	totalCO2Emission 	708.61797687698
scalar RSUExampleScenario.node[52].veinsmobility 	startTime 	312.1
scalar RSUExampleScenario.node[52].veinsmobility 	totalTime 	226.9
scalar RSUExampleScenario.node[52].veinsmobility 	stopTime 	539.1
scalar RSUExampleScenario.node[52].veinsmobility 	minSpeed 	0.25151072660834
scalar RSUExampleScenario.node[52].veinsmobility 	maxSpeed 	18.99983594096
scalar RSUExampleScenario.node[52].veinsmobility 	totalDistance 	3409.1958226104
scalar RSUExampleScenario.node[52].veinsmobility 	totalCO2Emission 	704.68167181044
scalar RSUExampleScenario.node[53].veinsmobility 	startTime 	318.1
scalar RSUExampleScenario.node[53].veinsmobility 	totalTime 	226.9
scalar RSUExampleScenario.node[53].veinsmobility 	stopTime 	545.1
scalar RSUExampleScenario.node[53].veinsmobility 	minSpeed 	0.25063992925501
scalar RSUExampleScenario.node[53].veinsmobility 	maxSpeed 	18.99989675503
scalar RSUExampleScenario.node[53].veinsmobility 	totalDistance 	3409.2376952803
scalar RSUExampleScenario.node[53].veinsmobility 	totalCO2Emission 	710.9610272339
scalar RSUExampleScenario.node[54].veinsmobility 	startTime 	324.1
scalar RSUExampleScenario.node[54].veinsmobility 	totalTime 	227
scalar RSUExampleScenario.node[54].veinsmobility 	stopTime 	551.2
scalar RSUExampleScenario.node[54].veinsmobility 	minSpeed 	0.24904768584203
scalar RSUExampleScenario.node[54].veinsmobility 	maxSpeed 	18.999856903749
scalar RSUExampleScenario.node[54].veinsmobility 	totalDistance 	3409.4488788495
scalar RSUExampleScenario.node[54].veinsmobility 	totalCO2Emission 	702.4447416663
scalar RSUExampleScenario.node[55].veinsmobility 	startTime 	330.1
scalar RSUExampleScenario.node[55].veinsmobility 	totalTime 	227.2
scalar RSUExampleScenario.node[55].veinsmobility 	stopTime 	557.4
scalar RSUExampleScenario.node[55].veinsmobility 	minSpeed 	0.25594314987632
scalar RSUExampleScenario.node[55].veinsmobility 	maxSpeed 	18.999522463202
scalar RSUExampleScenario.node[55].veinsmobility 	totalDistance 	3409.9327720875
scalar RSUExampleScenario.node[55].veinsmobility 	totalCO2Emission 	706.49519074586
scalar RSUExampleScenario.node[56].veinsmobility 	startTime 	336.1
scalar RSUExampleScenario.node[56].veinsmobility 	totalTime 	226.8
scalar RSUExampleScenario.node[56].veinsmobility 	stopTime 	563
scalar RSUExampleScenario.node[56].veinsmobility 	minSpeed 	0.25784216161631
scalar RSUExampleScenario.node[56].veinsmobility 	maxSpeed 	18.999172465669
scalar RSUExampleScenario.node[56].veinsmobility 	totalDistance 	3409.9001477774
scalar RSUExampleScenario.node[56].veinsmobility 	totalCO2Emission 	709.62097136886
scalar RSUExampleScenario.node[57].veinsmobility 	startTime 	342.1
scalar RSUExampleScenario.node[57].veinsmobility 	totalTime 	227
scalar RSUExampleScenario.node[57].veinsmobility 	stopTime 	569.2
scalar RSUExampleScenario.node[57].veinsmobility 	minSpeed 	0.25988140021497
scalar RSUExampleScenario.node[57].veinsmobility 	maxSpeed 	18.999574355148
scalar RSUExampleScenario.node[57].veinsmobility 	totalDistance 	3409.2991491514
scalar RSUExampleScenario.node[57].veinsmobility 	totalCO2Emission 	703.31849653199
scalar RSUExampleScenario.node[58].veinsmobility 	startTime 	348.1
scalar RSUExampleScenario.node[58].veinsmobility 	totalTime 	226.7
scalar RSUExampleScenario.node[58].veinsmobility 	stopTime 	574.9
scalar RSUExampleScenario.node[58].veinsmobility 	minSpeed 	0.25484795921878
scalar RSUExampleScenario.node[58].veinsmobility 	maxSpeed 	18.999950999524
scalar RSUExampleScenario.node[58].veinsmobility 	totalDistance 	3409.2706529028
scalar RSUExampleScenario.node[58].veinsmobility 	totalCO2Emission 	707.4228153196
scalar RSUExampleScenario.node[59].veinsmobility 	startTime 	354.1
scalar RSUExampleScenario.node[59].veinsmobility 	totalTime 	226.9
scalar RSUExampleScenario.node[59].veinsmobility 	stopTime 	581.1
scalar RSUExampleScenario.node[59].veinsmobility 	minSpeed 	0.25416668437305
scalar RSUExampleScenario.node[59].veinsmobility 	maxSpeed 	18.999882153906
scalar RSUExampleScenario.node[59].veinsmobility 	totalDistance 	3409.5273100575
scalar RSUExampleScenario.node[59].veinsmobility 	totalCO2Emission 	705.94307564722
scalar RSUExampleScenario.node[60].veinsmobility 	startTime 	360.1
scalar RSUExampleScenario.node[60].veinsmobility 	totalTime 	226.8
scalar RSUExampleScenario.node[60].veinsmobility 	stopTime 	587
scalar RSUExampleScenario.node[60].veinsmobility 	minSpeed 	0.25001763662114
scalar RSUExampleScenario.node[60].veinsmobility 	maxSpeed 	18.999877885061
scalar RSUExampleScenario.node[60].veinsmobility 	totalDistance 	3409.389706981
scalar RSUExampleScenario.node[60].veinsmobility 	totalCO2Emission 	708.803028869
scalar RSUExampleScenario.node[61].veinsmobility 	startTime 	366.1
scalar RSUExampleScenario.node[61].veinsmobility 	totalTime 	226.9
scalar RSUExampleScenario.node[61].veinsmobility 	stopTime 	593.1
scalar RSUExampleScenario.node[61].veinsmobility 	minSpeed 	0.25502389017888
scalar RSUExampleScenario.node[61].veinsmobility 	maxSpeed 	18.999880535174
scalar RSUExampleScenario.node[61].veinsmobility 	totalDistance 	3409.2253491164
scalar RSUExampleScenario.node[61].veinsmobility 	totalCO2Emission 	703.15658867033
scalar RSUExampleScenario.node[62].veinsmobility 	startTime 	372.1
scalar RSUExampleScenario.node[62].veinsmobility 	totalTime 	226.8
scalar RSUExampleScenario.node[62].veinsmobility 	stopTime 	599
scalar RSUExampleScenario.node[62].veinsmobility 	minSpeed 	0.25903900615894
scalar RSUExampleScenario.node[62].veinsmobility 	maxSpeed 	18.999978435091
scalar RSUExampleScenario.node[62].veinsmobility 	totalDistance 	3409.6066053695
scalar RSUExampleScenario.node[62].veinsmobility 	totalCO2Emission 	708.28187020796
scalar RSUExampleScenario.node[63].veinsmobility 	startTime 	378.1
scalar RSUExampleScenario.node[63].veinsmobility 	totalTime 	226.8
scalar RSUExampleScenario.node[63].veinsmobility 	stopTime 	605
scalar RSUExampleScenario.node[63].veinsmobility 	minSpeed 	0.25610109274928
scalar RSUExampleScenario.node[63].veinsmobility 	maxSpeed 	18.999894220449
scalar RSUExampleScenario.node[63].veinsmobility 	totalDistance 	3409.6306298934
scalar RSUExampleScenario.node[63].veinsmobility 	totalCO2Emission 	706.31046670559
scalar RSUExampleScenario.node[64].veinsmobility 	startTime 	384.1
scalar RSUExampleScenario.node[64].veinsmobility 	totalTime 	226.7
scalar RSUExampleScenario.node[64].veinsmobility 	stopTime 	610.9
scalar RSUExampleScenario.node[64].veinsmobility 	minSpeed 	0.24989863974438
scalar RSUExampleScenario.node[64].veinsmobility 	maxSpeed 	18.999920769739
scalar RSUExampleScenario.node[64].veinsmobility 	totalDistance 	3409.6085841373
scalar RSUExampleScenario.node[64].veinsmobility 	totalCO2Emission 	704.3603817544
scalar RSUExampleScenario.node[65].veinsmobility 	startTime 	390.1
scalar RSUExampleScenario.node[65].veinsmobility 	totalTime 	226.7
scalar RSUExampleScenario.node[65].veinsmobility 	stopTime 	616.9
scalar RSUExampleScenario.node[65].veinsmobility 	minSpeed 	0.24958339334908
scalar RSUExampleScenario.node[65].veinsmobility 	maxSpeed 	18.999879736342
scalar RSUExampleScenario.node[65].veinsmobility 	totalDistance 	3409.3734590897
scalar RSUExampleScenario.node[65].veinsmobility 	totalCO2Emission 	702.91609635758
scalar RSUExampleScenario.node[66].veinsmobility 	startTime 	396.1
scalar RSUExampleScenario.node[66].veinsmobility 	totalTime 	226.9
scalar RSUExampleScenario.node[66].veinsmobility 	stopTime 	623.1
scalar RSUExampleScenario.node[66].veinsmobility 	minSpeed 	0.25780147512024
scalar RSUExampleScenario.node[66].veinsmobility 	maxSpeed 	18.999724271563
scalar RSUExampleScenario.node[66].veinsmobility 	totalDistance 	3409.437014145
scalar RSUExampleScenario.node[66].veinsmobility 	totalCO2Emission 	706.07638471186
scalar RSUExampleScenario.node[67].veinsmobility 	startTime 	402.1
scalar RSUExampleScenario.node[67].veinsmobility 	totalTime 	226.7
scalar RSUExampleScenario.node[67].veinsmobility 	stopTime 	628.9
scalar RSUExampleScenario.node[67].veinsmobility 	minSpeed 	0.24902755072271
scalar RSUExampleScenario.node[67].veinsmobility 	maxSpeed 	18.999907629045
scalar RSUExampleScenario.node[67].veinsmobility 	totalDistance 	3409.5095055152
scalar RSUExampleScenario.node[67].veinsmobility 	totalCO2Emission 	711.30673179978
scalar RSUExampleScenario.node[68].veinsmobility 	startTime 	408.1
scalar RSUExampleScenario.node[68].veinsmobility 	totalTime 	227.1
scalar RSUExampleScenario.node[68].veinsmobility 	stopTime 	635.3
scalar RSUExampleScenario.node[68].veinsmobility 	minSpeed 	0.25110647126241
scalar RSUExampleScenario.node[68].veinsmobility 	maxSpeed 	18.999972266688
scalar RSUExampleScenario.node[68].veinsmobility 	totalDistance 	3409.129924644
scalar RSUExampleScenario.node[68].veinsmobility 	totalCO2Emission 	708.01660296492
scalar RSUExampleScenario.node[69].veinsmobility 	startTime 	414.1
scalar RSUExampleScenario.node[69].veinsmobility 	totalTime 	226.9
scalar RSUExampleScenario.node[69].veinsmobility 	stopTime 	641.1
scalar RSUExampleScenario.node[69].veinsmobility 	minSpeed 	0.25998155650683
scalar RSUExampleScenario.node[69].veinsmobility 	maxSpeed 	18.999896672429
scalar RSUExampleScenario.node[69].veinsmobility 	totalDistance 	3409.3891100411
scalar RSUExampleScenario.node[69].veinsmobility 	totalCO2Emission 	707.24010650461
scalar RSUExampleScenario.node[70].veinsmobility 	startTime 	420.1
scalar RSUExampleScenario.node[70].veinsmobility 	totalTime 	226.7
scalar RSUExampleScenario.node[70].veinsmobility 	stopTime 	646.9
scalar RSUExampleScenario.node[70].veinsmobility 	minSpeed 	0.25252549503651
scalar RSUExampleScenario.node[70].veinsmobility 	maxSpeed 	18.999962504748
scalar RSUExampleScenario.node[70].veinsmobility 	totalDistance 	3409.3475415453
scalar RSUExampleScenario.node[70].veinsmobility 	totalCO2Emission 	706.20979400891
scalar RSUExampleScenario.node[71].veinsmobility 	startTime 	426.1
scalar RSUExampleScenario.node[71].veinsmobility 	totalTime 	226.7
scalar RSUExampleScenario.node[71].veinsmobility 	stopTime 	652.9
scalar RSUExampleScenario.node[71].veinsmobility 	minSpeed 	0.2502622892675
scalar RSUExampleScenario.node[71].veinsmobility 	maxSpeed 	18.999980717297
scalar RSUExampleScenario.node[71].veinsmobility 	totalDistance 	3409.3646572394
scalar RSUExampleScenario.node[71].veinsmobility 	totalCO2Emission 	710.07387920917
scalar RSUExampleScenario.node[72].veinsmobility 	startTime 	432.1
scalar RSUExampleScenario.node[72].veinsmobility 	totalTime 	226.7
scalar RSUExampleScenario.node[72].veinsmobility 	stopTime 	658.9
scalar RSUExampleScenario.node[72].veinsmobility 	minSpeed 	0.25182471830794
scalar RSUExampleScenario.node[72].veinsmobility 	maxSpeed 	18.99992085122
scalar RSUExampleScenario.node[72].veinsmobility 	totalDistance 	3409.153632421
scalar RSUExampleScenario.node[72].veinsmobility 	totalCO2Emission 	705.41693441042
scalar RSUExampleScenario.node[73].veinsmobility 	startTime 	438.1
scalar RSUExampleScenario.node[73].veinsmobility 	totalTime 	226.8
scalar RSUExampleScenario.node[73].veinsmobility 	stopTime 	665
scalar RSUExampleScenario.node[73].veinsmobility 	minSpeed 	0.25152856927598
scalar RSUExampleScenario.node[73].veinsmobility 	maxSpeed 	18.999725784236
scalar RSUExampleScenario.node[73].veinsmobility 	totalDistance 	3409.4089222543
scalar RSUExampleScenario.node[73].veinsmobility 	totalCO2Emission 	704.18956631766
scalar RSUExampleScenario.node[74].veinsmobility 	startTime 	444.1
scalar RSUExampleScenario.node[74].veinsmobility 	totalTime 	226.8
scalar RSUExampleScenario.node[74].veinsmobility 	stopTime 	671
scalar RSUExampleScenario.node[74].veinsmobility 	minSpeed 	0.25358366379421
scalar RSUExampleScenario.node[74].veinsmobility 	maxSpeed 	18.999897872191
scalar RSUExampleScenario.node[74].veinsmobility 	totalDistance 	3409.3383304932
scalar RSUExampleScenario.node[74].veinsmobility 	totalCO2Emission 	705.65104132978
scalar RSUExampleScenario.node[75].veinsmobility 	startTime 	450.1
scalar RSUExampleScenario.node[75].veinsmobility 	totalTime 	227
scalar RSUExampleScenario.node[75].veinsmobility 	stopTime 	677.2
scalar RSUExampleScenario.node[75].veinsmobility 	minSpeed 	0.25130415578606
scalar RSUExampleScenario.node[75].veinsmobility 	maxSpeed 	18.999963947108
scalar RSUExampleScenario.node[75].veinsmobility 	totalDistance 	3409.331904933
scalar RSUExampleScenario.node[75].veinsmobility 	totalCO2Emission 	708.11287850003
scalar RSUExampleScenario.node[76].veinsmobility 	startTime 	456.1
scalar RSUExampleScenario.node[76].veinsmobility 	totalTime 	226.7
scalar RSUExampleScenario.node[76].veinsmobility 	stopTime 	682.9
scalar RSUExampleScenario.node[76].veinsmobility 	minSpeed 	0.25167826781003
scalar RSUExampleScenario.node[76].veinsmobility 	maxSpeed 	18.999565253535
scalar RSUExampleScenario.node[76].veinsmobility 	totalDistance 	3409.3926469932
scalar RSUExampleScenario.node[76].veinsmobility 	totalCO2Emission 	706.90540388448
scalar RSUExampleScenario.node[77].veinsmobility 	startTime 	462.1
scalar RSUExampleScenario.node[77].veinsmobility 	totalTime 	227
scalar RSUExampleScenario.node[77].veinsmobility 	stopTime 	689.2
scalar RSUExampleScenario.node[77].veinsmobility 	minSpeed 	0.25377506631892
scalar RSUExampleScenario.node[77].veinsmobility 	maxSpeed 	18.999903222783
scalar RSUExampleScenario.node[77].veinsmobility 	totalDistance 	3409.6354795394
scalar RSUExampleScenario.node[77].veinsmobility 	totalCO2Emission 	706.8825931661
scalar RSUExampleScenario.node[78].veinsmobility 	startTime 	468.1
scalar RSUExampleScenario.node[78].veinsmobility 	totalTime 	226.6
scalar RSUExampleScenario.node[78].veinsmobility 	stopTime 	694.8
scalar RSUExampleScenario.node[78].veinsmobility 	minSpeed 	0.25188402394531
scalar RSUExampleScenario.node[78].veinsmobility 	maxSpeed 	18.999929969572
scalar RSUExampleScenario.node[78].veinsmobility 	totalDistance 	3409.5427073037
scalar RSUExampleScenario.node[78].veinsmobility 	totalCO2Emission 	707.72388974383
scalar RSUExampleScenario.node[79].veinsmobility 	startTime 	474.1
scalar RSUExampleScenario.node[79].veinsmobility 	totalTime 	226.9
scalar RSUExampleScenario.node[79].veinsmobility 	stopTime 	701.1
scalar RSUExampleScenario.node[79].veinsmobility 	minSpeed 	0.2498868285385
scalar RSUExampleScenario.node[79].veinsmobility 	maxSpeed 	18.999908237341
scalar RSUExampleScenario.node[79].veinsmobility 	totalDistance 	3409.6107121681
scalar RSUExampleScenario.node[79].veinsmobility 	totalCO2Emission 	706.75451152105
scalar RSUExampleScenario.node[80].veinsmobility 	startTime 	480.1
scalar RSUExampleScenario.node[80].veinsmobility 	totalTime 	227
scalar RSUExampleScenario.node[80].veinsmobility 	stopTime 	707.2
scalar RSUExampleScenario.node[80].veinsmobility 	minSpeed 	0.25723972758558
scalar RSUExampleScenario.node[80].veinsmobility 	maxSpeed 	18.999666297357
scalar RSUExampleScenario.node[80].veinsmobility 	totalDistance 	3409.8216731938
scalar RSUExampleScenario.node[80].veinsmobility 	totalCO2Emission 	705.07507221429
scalar RSUExampleScenario.node[81].veinsmobility 	startTime 	486.1
scalar RSUExampleScenario.node[81].veinsmobility 	totalTime 	226.7
scalar RSUExampleScenario.node[81].veinsmobility 	stopTime 	712.9
scalar RSUExampleScenario.node[81].veinsmobility 	minSpeed 	0.259956848667
scalar RSUExampleScenario.node[81].veinsmobility 	maxSpeed 	18.999996661048
scalar RSUExampleScenario.node[81].veinsmobility 	totalDistance 	3409.1974383441
scalar RSUExampleScenario.node[81].veinsmobility 	totalCO2Emission 	708.67578492469
scalar RSUExampleScenario.node[82].veinsmobility 	startTime 	492.1
scalar RSUExampleScenario.node[82].veinsmobility 	totalTime 	226.7
scalar RSUExampleScenario.node[82].veinsmobility 	stopTime 	718.9
scalar RSUExampleScenario.node[82].veinsmobility 	minSpeed 	0.25306982352212
scalar RSUExampleScenario.node[82].veinsmobility 	maxSpeed 	18.99998757917
scalar RSUExampleScenario.node[82].veinsmobility 	totalDistance 	3409.4552878343
scalar RSUExampleScenario.node[82].veinsmobility 	totalCO2Emission 	706.50144074756
scalar RSUExampleScenario.node[83].veinsmobility 	startTime 	498.1
scalar RSUExampleScenario.node[83].veinsmobility 	totalTime 	227
scalar RSUExampleScenario.node[83].veinsmobility 	stopTime 	725.2
scalar RSUExampleScenario.node[83].veinsmobility 	minSpeed 	0.24780952087371
scalar RSUExampleScenario.node[83].veinsmobility 	maxSpeed 	18.999952806765
scalar RSUExampleScenario.node[83].veinsmobility 	totalDistance 	3409.3297827817
scalar RSUExampleScenario.node[83].veinsmobility 	totalCO2Emission 	711.3584415123
scalar RSUExampleScenario.node[84].veinsmobility 	startTime 	504.1
scalar RSUExampleScenario.node[84].veinsmobility 	totalTime 	226.6
scalar RSUExampleScenario.node[84].veinsmobility 	stopTime 	730.8
scalar RSUExampleScenario.node[84].veinsmobility 	minSpeed 	0.25400452942261
scalar RSUExampleScenario.node[84].veinsmobility 	maxSpeed 	18.999794454481
scalar RSUExampleScenario.node[84].veinsmobility 	totalDistance 	3409.1187744852
scalar RSUExampleScenario.node[84].veinsmobility 	totalCO2Emission 	709.54044190797
scalar RSUExampleScenario.node[85].veinsmobility 	startTime 	510.1
scalar RSUExampleScenario.node[85].veinsmobility 	totalTime 	227
scalar RSUExampleScenario.node[85].veinsmobility 	stopTime 	737.2
scalar RSUExampleScenario.node[85].veinsmobility 	minSpeed 	0.25094518143451
scalar RSUExampleScenario.node[85].veinsmobility 	maxSpeed 	18.999746600103
scalar RSUExampleScenario.node[85].veinsmobility 	totalDistance 	3409.1978595323
scalar RSUExampleScenario.node[85].veinsmobility 	totalCO2Emission 	710.4038601698
scalar RSUExampleScenario.node[86].veinsmobility 	startTime 	516.1
scalar RSUExampleScenario.node[86].veinsmobility 	totalTime 	226.9
scalar RSUExampleScenario.node[86].veinsmobility 	stopTime 	743.1
scalar RSUExampleScenario.node[86].veinsmobility 	minSpeed 	0.25285864114854
scalar RSUExampleScenario.node[86].veinsmobility 	maxSpeed 	18.999106012492
scalar RSUExampleScenario.node[86].veinsmobility 	totalDistance 	3409.3153901277
scalar RSUExampleScenario.node[86].veinsmobility 	totalCO2Emission 	707.08573474808
scalar RSUExampleScenario.node[87].veinsmobility 	startTime 	522.1
scalar RSUExampleScenario.node[87].veinsmobility 	totalTime 	226.7
scalar RSUExampleScenario.node[87].veinsmobility 	stopTime 	748.9
scalar RSUExampleScenario.node[87].veinsmobility 	minSpeed 	0.24787056394177
scalar RSUExampleScenario.node[87].veinsmobility 	maxSpeed 	18.999431513813
scalar RSUExampleScenario.node[87].veinsmobility 	totalDistance 	3409.1151604712
scalar RSUExampleScenario.node[87].veinsmobility 	totalCO2Emission 	704.85954560618
scalar RSUExampleScenario.node[88].veinsmobility 	startTime 	528.1
scalar RSUExampleScenario.node[88].veinsmobility 	totalTime 	226.8
scalar RSUExampleScenario.node[88].veinsmobility 	stopTime 	755
scalar RSUExampleScenario.node[88].veinsmobility 	minSpeed 	0.25219362693862
scalar RSUExampleScenario.node[88].veinsmobility 	maxSpeed 	18.999794210189
scalar RSUExampleScenario.node[88].veinsmobility 	totalDistance 	3409.2563829387
scalar RSUExampleScenario.node[88].veinsmobility 	totalCO2Emission 	707.10309748852
scalar RSUExampleScenario.node[89].veinsmobility 	startTime 	534.1
scalar RSUExampleScenario.node[89].veinsmobility 	totalTime 	227.2
scalar RSUExampleScenario.node[89].veinsmobility 	stopTime 	761.4
scalar RSUExampleScenario.node[89].veinsmobility 	minSpeed 	0.24906896591443
scalar RSUExampleScenario.node[89].veinsmobility 	maxSpeed 	18.999953798617
scalar RSUExampleScenario.node[89].veinsmobility 	totalDistance 	3409.7100014883
scalar RSUExampleScenario.node[89].veinsmobility 	totalCO2Emission 	709.90821238634
scalar RSUExampleScenario.node[90].veinsmobility 	startTime 	540.1
scalar RSUExampleScenario.node[90].veinsmobility 	totalTime 	227
scalar RSUExampleScenario.node[90].veinsmobility 	stopTime 	767.2
scalar RSUExampleScenario.node[90].veinsmobility 	minSpeed 	0.25507788940589
scalar RSUExampleScenario.node[90].veinsmobility 	maxSpeed 	18.9998317608
scalar RSUExampleScenario.node[90].veinsmobility 	totalDistance 	3409.6121133495
scalar RSUExampleScenario.node[90].veinsmobility 	totalCO2Emission 	709.17167387711
scalar RSUExampleScenario.node[91].veinsmobility 	startTime 	546.1
scalar RSUExampleScenario.node[91].veinsmobility 	totalTime 	227
scalar RSUExampleScenario.node[91].veinsmobility 	stopTime 	773.2
scalar RSUExampleScenario.node[91].veinsmobility 	minSpeed 	0.25834513476212
scalar RSUExampleScenario.node[91].veinsmobility 	maxSpeed 	18.99967369128
scalar RSUExampleScenario.node[91].veinsmobility 	totalDistance 	3409.5061419636
scalar RSUExampleScenario.node[91].veinsmobility 	totalCO2Emission 	708.6436432548
scalar RSUExampleScenario.node[92].veinsmobility 	startTime 	552.1
scalar RSUExampleScenario.node[92].veinsmobility 	totalTime 	226.9
scalar RSUExampleScenario.node[92].veinsmobility 	stopTime 	779.1
scalar RSUExampleScenario.node[92].veinsmobility 	minSpeed 	0.24978807440796
scalar RSUExampleScenario.node[92].veinsmobility 	maxSpeed 	18.999879609004
scalar RSUExampleScenario.node[92].veinsmobility 	totalDistance 	3409.2097945375
scalar RSUExampleScenario.node[92].veinsmobility 	totalCO2Emission 	704.69092829642
scalar RSUExampleScenario.node[93].veinsmobility 	startTime 	558.1
scalar RSUExampleScenario.node[93].veinsmobility 	totalTime 	226.7
scalar RSUExampleScenario.node[93].veinsmobility 	stopTime 	784.9
scalar RSUExampleScenario.node[93].veinsmobility 	minSpeed 	0.25753276274423
scalar RSUExampleScenario.node[93].veinsmobility 	maxSpeed 	18.999883786228
scalar RSUExampleScenario.node[93].veinsmobility 	totalDistance 	3409.6428250346
scalar RSUExampleScenario.node[93].veinsmobility 	totalCO2Emission 	703.39522701419
scalar RSUExampleScenario.node[94].veinsmobility 	startTime 	564.1
scalar RSUExampleScenario.node[94].veinsmobility 	totalTime 	226.9
scalar RSUExampleScenario.node[94].veinsmobility 	stopTime 	791.1
scalar RSUExampleScenario.node[94].veinsmobility 	minSpeed 	0.2568711292774
scalar RSUExampleScenario.node[94].veinsmobility 	maxSpeed 	18.999825335694
scalar RSUExampleScenario.node[94].veinsmobility 	totalDistance 	3409.3349154536
scalar RSUExampleScenario.node[94].veinsmobility 	totalCO2Emission 	707.30035301741
scalar RSUExampleScenario.node[95].veinsmobility 	startTime 	570.1
scalar RSUExampleScenario.node[95].veinsmobility 	totalTime 	226.9
scalar RSUExampleScenario.node[95].veinsmobility 	stopTime 	797.1
scalar RSUExampleScenario.node[95].veinsmobility 	minSpeed 	0.25988897208101
scalar RSUExampleScenario.node[95].veinsmobility 	maxSpeed 	18.999876478144
scalar RSUExampleScenario.node[95].veinsmobility 	totalDistance 	3409.0692229519
scalar RSUExampleScenario.node[95].veinsmobility 	totalCO2Emission 	702.91397107978
scalar RSUExampleScenario.node[96].veinsmobility 	startTime 	576.1
scalar RSUExampleScenario.node[96].veinsmobility 	totalTime 	227
scalar RSUExampleScenario.node[96].veinsmobility 	stopTime 	803.2
scalar RSUExampleScenario.node[96].veinsmobility 	minSpeed 	0.25528929810529
scalar RSUExampleScenario.node[96].veinsmobility 	maxSpeed 	18.999668773429
scalar RSUExampleScenario.node[96].veinsmobility 	totalDistance 	3409.2018187654
scalar RSUExampleScenario.node[96].veinsmobility 	totalCO2Emission 	706.11769533817
scalar RSUExampleScenario.node[97].veinsmobility 	startTime 	582.1
scalar RSUExampleScenario.node[97].veinsmobility 	totalTime 	226.9
scalar RSUExampleScenario.node[97].veinsmobility 	stopTime 	809.1
scalar RSUExampleScenario.node[97].veinsmobility 	minSpeed 	0.25528151086438
scalar RSUExampleScenario.node[97].veinsmobility 	maxSpeed 	18.999432598164
scalar RSUExampleScenario.node[97].veinsmobility 	totalDistance 	3409.7127078324
scalar RSUExampleScenario.node[97].veinsmobility 	totalCO2Emission 	708.99190784735
scalar RSUExampleScenario.node[98].veinsmobility 	startTime 	588.1
scalar RSUExampleScenario.node[98].veinsmobility 	totalTime 	227.1
scalar RSUExampleScenario.node[98].veinsmobility 	stopTime 	815.3
scalar RSUExampleScenario.node[98].veinsmobility 	minSpeed 	0.25972146332054
scalar RSUExampleScenario.node[98].veinsmobility 	maxSpeed 	18.99986543145
scalar RSUExampleScenario.node[98].veinsmobility 	totalDistance 	3409.991656264
scalar RSUExampleScenario.node[98].veinsmobility 	totalCO2Emission 	703.58642569987
scalar RSUExampleScenario.node[99].veinsmobility 	startTime 	594.1
scalar RSUExampleScenario.node[99].veinsmobility 	totalTime 	226.9
scalar RSUExampleScenario.node[99].veinsmobility 	stopTime 	821.1
scalar RSUExampleScenario.node[99].veinsmobility 	minSpeed 	0.25054646413377
scalar RSUExampleScenario.node[99].veinsmobility 	maxSpeed 	18.999764378881
scalar RSUExampleScenario.node[99].veinsmobility 	totalDistance 	3409.3286945464
scalar RSUExampleScenario.node[99].veinsmobility 	totalCO2Emission 	706.83092759947
scalar RSUExampleScenario.node[100].veinsmobility 	startTime 	600.1
scalar RSUExampleScenario.node[100].veinsmobility 	totalTime 	226.7
scalar RSUExampleScenario.node[100].veinsmobility 	stopTime 	826.9
scalar RSUExampleScenario.node[100].veinsmobility 	minSpeed 	0.25283975280379
scalar RSUExampleScenario.node[100].veinsmobility 	maxSpeed 	18.999857155911
scalar RSUExampleScenario.node[100].veinsmobility 	totalDistance 	3409.544010272
scalar RSUExampleScenario.node[100].veinsmobility 	totalCO2Emission 	707.50047307602
scalar RSUExampleScenario.node[101].veinsmobility 	startTime 	606.1
scalar RSUExampleScenario.node[101].veinsmobility 	totalTime 	226.8
scalar RSUExampleScenario.node[101].veinsmobility 	stopTime 	833
scalar RSUExampleScenario.node[101].veinsmobility 	minSpeed 	0.24738304159069
scalar RSUExampleScenario.node[101].veinsmobility 	maxSpeed 	18.999618109304
scalar RSUExampleScenario.node[101].veinsmobility 	totalDistance 	3409.5261817469
scalar RSUExampleScenario.node[101].veinsmobility 	totalCO2Emission 	707.25868205884
scalar RSUExampleScenario.node[102].veinsmobility 	startTime 	612.1
scalar RSUExampleScenario.node[102].veinsmobility 	totalTime 	227.1
scalar RSUExampleScenario.node[102].veinsmobility 	stopTime 	839.3
scalar RSUExampleScenario.node[102].veinsmobility 	minSpeed 	0.25389478963637
scalar RSUExampleScenario.node[102].veinsmobility 	maxSpeed 	18.999978300368
scalar RSUExampleScenario.node[102].veinsmobility 	totalDistance 	3409.1820682317
scalar RSUExampleScenario.node[102].veinsmobility 	totalCO2Emission 	711.04506964105
scalar RSUExampleScenario.node[103].veinsmobility 	startTime 	618.1
scalar RSUExampleScenario.node[103].veinsmobility 	totalTime 	227
scalar RSUExampleScenario.node[103].veinsmobility 	stopTime 	845.2
scalar RSUExampleScenario.node[103].veinsmobility 	minSpeed 	0.25489616746618
scalar RSUExampleScenario.node[103].veinsmobility 	maxSpeed 	18.999958122065
scalar RSUExampleScenario.node[103].veinsmobility 	totalDistance 	3409.3238646476
scalar RSUExampleScenario.node[103].veinsmobility 	totalCO2Emission 	708.5002041465
scalar RSUExampleScenario.node[104].veinsmobility 	startTime 	624.1
scalar RSUExampleScenario.node[104].veinsmobility 	totalTime 	227.1
scalar RSUExampleScenario.node[104].veinsmobility 	stopTime 	851.3
scalar RSUExampleScenario.node[104].veinsmobility 	minSpeed 	0.25436274643592
scalar RSUExampleScenario.node[104].veinsmobility 	maxSpeed 	18.999971716325
scalar RSUExampleScenario.node[104].veinsmobility 	totalDistance 	3409.388420292
scalar RSUExampleScenario.node[104].veinsmobility 	totalCO2Emission 	705.0827917631
scalar RSUExampleScenario.node[105].veinsmobility 	startTime 	630.1
scalar RSUExampleScenario.node[105].veinsmobility 	totalTime 	226.9
scalar RSUExampleScenario.node[105].veinsmobility 	stopTime 	857.1
scalar RSUExampleScenario.node[105].veinsmobility 	minSpeed 	0.25812508896342
scalar RSUExampleScenario.node[105].veinsmobility 	maxSpeed 	18.999975923696
scalar RSUExampleScenario.node[105].veinsmobility 	totalDistance 	3409.4850467704
scalar RSUExampleScenario.node[105].veinsmobility 	totalCO2Emission 	705.68735145262
scalar RSUExampleScenario.node[106].veinsmobility 	startTime 	636.1
scalar RSUExampleScenario.node[106].veinsmobility 	totalTime 	227.1
scalar RSUExampleScenario.node[106].veinsmobility 	stopTime 	863.3
scalar RSUExampleScenario.node[106].veinsmobility 	minSpeed 	0.25206568888132
scalar RSUExampleScenario.node[106].veinsmobility 	maxSpeed 	18.999600296081
scalar RSUExampleScenario.node[106].veinsmobility 	totalDistance 	3409.2719381531
scalar RSUExampleScenario.node[106].veinsmobility 	totalCO2Emission 	705.57682788427
scalar RSUExampleScenario.node[107].veinsmobility 	startTime 	642.1
scalar RSUExampleScenario.node[107].veinsmobility 	totalTime 	227
scalar RSUExampleScenario.node[107].veinsmobility 	stopTime 	869.2
scalar RSUExampleScenario.node[107].veinsmobility 	minSpeed 	0.25131522001443
scalar RSUExampleScenario.node[107].veinsmobility 	maxSpeed 	18.999421671694
scalar RSUExampleScenario.node[107].veinsmobility 	totalDistance 	3409.2662064452
scalar RSUExampleScenario.node[107].veinsmobility 	totalCO2Emission 	707.96701247288
scalar RSUExampleScenario.node[108].veinsmobility 	startTime 	648.1
scalar RSUExampleScenario.node[108].veinsmobility 	totalTime 	226.8
scalar RSUExampleScenario.node[108].veinsmobility 	stopTime 	875
scalar RSUExampleScenario.node[108].veinsmobility 	minSpeed 	0.2580895059309
scalar RSUExampleScenario.node[108].veinsmobility 	maxSpeed 	18.999838878862
scalar RSUExampleScenario.node[108].veinsmobility 	totalDistance 	3409.1303499361
scalar RSUExampleScenario.node[108].veinsmobility 	totalCO2Emission 	706.76419398592
scalar RSUExampleScenario.node[109].veinsmobility 	startTime 	654.1
scalar RSUExampleScenario.node[109].veinsmobility 	totalTime 	226.9
scalar RSUExampleScenario.node[109].veinsmobility 	stopTime 	881.1
scalar RSUExampleScenario.node[109].veinsmobility 	minSpeed 	0.25175990232662
scalar RSUExampleScenario.node[109].veinsmobility 	maxSpeed 	18.999946920248
scalar RSUExampleScenario.node[109].veinsmobility 	totalDistance 	3409.6929664518
scalar RSUExampleScenario.node[109].veinsmobility 	totalCO2Emission 	707.12103621162
scalar RSUExampleScenario.node[110].veinsmobility 	startTime 	660.1
scalar RSUExampleScenario.node[110].veinsmobility 	totalTime 	226.8
scalar RSUExampleScenario.node[110].veinsmobility 	stopTime 	887
scalar RSUExampleScenario.node[110].veinsmobility 	minSpeed 	0.25514459858299
scalar RSUExampleScenario.node[110].veinsmobility 	maxSpeed 	18.999919681665
scalar RSUExampleScenario.node[110].veinsmobility 	totalDistance 	3409.0564151307
scalar RSUExampleScenario.node[110].veinsmobility 	totalCO2Emission 	705.49465516402
scalar RSUExampleScenario.node[111].veinsmobility 	startTime 	666.1
scalar RSUExampleScenario.node[111].veinsmobility 	totalTime 	226.8
scalar RSUExampleScenario.node[111].veinsmobility 	stopTime 	893
scalar RSUExampleScenario.node[111].veinsmobility 	minSpeed 	0.25496066297614
scalar RSUExampleScenario.node[111].veinsmobility 	maxSpeed 	18.999988622689
scalar RSUExampleScenario.node[111].veinsmobility 	totalDistance 	3409.6066738727
scalar RSUExampleScenario.node[111].veinsmobility 	totalCO2Emission 	704.41836714743
scalar RSUExampleScenario.node[112].veinsmobility 	startTime 	672.1
scalar RSUExampleScenario.node[112].veinsmobility 	totalTime 	226.6
scalar RSUExampleScenario.node[112].veinsmobility 	stopTime 	898.8
scalar RSUExampleScenario.node[112].veinsmobility 	minSpeed 	0.25774450651323
scalar RSUExampleScenario.node[112].veinsmobility 	maxSpeed 	18.99993495032
scalar RSUExampleScenario.node[112].veinsmobility 	totalDistance 	3409.755621156
scalar RSUExampleScenario.node[112].veinsmobility 	totalCO2Emission 	704.92413896811
scalar RSUExampleScenario.node[113].veinsmobility 	startTime 	678.1
scalar RSUExampleScenario.node[113].veinsmobility 	totalTime 	226.8
scalar RSUExampleScenario.node[113].veinsmobility 	stopTime 	905
scalar RSUExampleScenario.node[113].veinsmobility 	minSpeed 	0.25829179943306
scalar RSUExampleScenario.node[113].veinsmobility 	maxSpeed 	18.999744771463
scalar RSUExampleScenario.node[113].veinsmobility 	totalDistance 	3409.5111724188
scalar RSUExampleScenario.node[113].veinsmobility 	totalCO2Emission 	709.25447100975
scalar RSUExampleScenario.node[114].veinsmobility 	startTime 	684.1
scalar RSUExampleScenario.node[114].veinsmobility 	totalTime 	227
scalar RSUExampleScenario.node[114].veinsmobility 	stopTime 	911.2
scalar RSUExampleScenario.node[114].veinsmobility 	minSpeed 	0.25176454556547
scalar RSUExampleScenario.node[114].veinsmobility 	maxSpeed 	18.999947568981
scalar RSUExampleScenario.node[114].veinsmobility 	totalDistance 	3409.6103942211
scalar RSUExampleScenario.node[114].veinsmobility 	totalCO2Emission 	704.8199081287
scalar RSUExampleScenario.node[115].veinsmobility 	startTime 	690.1
scalar RSUExampleScenario.node[115].veinsmobility 	totalTime 	226.9
scalar RSUExampleScenario.node[115].veinsmobility 	stopTime 	917.1
scalar RSUExampleScenario.node[115].veinsmobility 	minSpeed 	0.25675787090766
scalar RSUExampleScenario.node[115].veinsmobility 	maxSpeed 	18.999951052221
scalar RSUExampleScenario.node[115].veinsmobility 	totalDistance 	3409.4435342997
scalar RSUExampleScenario.node[115].veinsmobility 	totalCO2Emission 	707.0968846812
scalar RSUExampleScenario.node[116].veinsmobility 	startTime 	696.1
scalar RSUExampleScenario.node[116].veinsmobility 	totalTime 	227
scalar RSUExampleScenario.node[116].veinsmobility 	stopTime 	923.2
scalar RSUExampleScenario.node[116].veinsmobility 	minSpeed 	0.25577079238161
scalar RSUExampleScenario.node[116].veinsmobility 	maxSpeed 	18.99991010203
scalar RSUExampleScenario.node[116].veinsmobility 	totalDistance 	3409.1656207614
scalar RSUExampleScenario.node[116].veinsmobility 	totalCO2Emission 	704.52529299765
scalar RSUExampleScenario.node[117].veinsmobility 	startTime 	702.1
scalar RSUExampleScenario.node[117].veinsmobility 	totalTime 	226.9
scalar RSUExampleScenario.node[117].veinsmobility 	stopTime 	929.1
scalar RSUExampleScenario.node[117].veinsmobility 	minSpeed 	0.2546264858942
scalar RSUExampleScenario.node[117].veinsmobility 	maxSpeed 	18.999516167946
scalar RSUExampleScenario.node[117].veinsmobility 	totalDistance 	3409.4059841655
scalar RSUExampleScenario.node[117].veinsmobility 	totalCO2Emission 	701.50838032082
scalar RSUExampleScenario.node[118].veinsmobility 	startTime 	708.1
scalar RSUExampleScenario.node[118].veinsmobility 	totalTime 	227.4
scalar RSUExampleScenario.node[118].veinsmobility 	stopTime 	935.6
scalar RSUExampleScenario.node[118].veinsmobility 	minSpeed 	0.25189698587032
scalar RSUExampleScenario.node[118].veinsmobility 	maxSpeed 	18.999871062597
scalar RSUExampleScenario.node[118].veinsmobility 	totalDistance 	3409.5532913413
scalar RSUExampleScenario.node[118].veinsmobility 	totalCO2Emission 	711.18160048048
scalar RSUExampleScenario.node[119].veinsmobility 	startTime 	714.1
scalar RSUExampleScenario.node[119].veinsmobility 	totalTime 	227.1
scalar RSUExampleScenario.node[119].veinsmobility 	stopTime 	941.3
scalar RSUExampleScenario.node[119].veinsmobility 	minSpeed 	0.25611083683651
scalar RSUExampleScenario.node[119].veinsmobility 	maxSpeed 	18.9992656653
scalar RSUExampleScenario.node[119].veinsmobility 	totalDistance 	3409.5378859659
scalar RSUExampleScenario.node[119].veinsmobility 	totalCO2Emission 	702.86310670122
scalar RSUExampleScenario.node[120].veinsmobility 	startTime 	720.1
scalar RSUExampleScenario.node[120].veinsmobility 	totalTime 	226.8
scalar RSUExampleScenario.node[120].veinsmobility 	stopTime 	947
scalar RSUExampleScenario.node[120].veinsmobility 	minSpeed 	0.25056765120174
scalar RSUExampleScenario.node[120].veinsmobility 	maxSpeed 	18.999867174402
scalar RSUExampleScenario.node[120].veinsmobility 	totalDistance 	3409.3850608608
scalar RSUExampleScenario.node[120].veinsmobility 	totalCO2Emission 	704.70040254173
scalar RSUExampleScenario.node[121].veinsmobility 	startTime 	726.1
scalar RSUExampleScenario.node[121].veinsmobility 	totalTime 	227.2
scalar RSUExampleScenario.node[121].veinsmobility 	stopTime 	953.4
scalar RSUExampleScenario.node[121].veinsmobility 	minSpeed 	0.25992151302984
scalar RSUExampleScenario.node[121].veinsmobility 	maxSpeed 	18.999586778278
scalar RSUExampleScenario.node[121].veinsmobility 	totalDistance 	3409.1503726985
scalar RSUExampleScenario.node[121].veinsmobility 	totalCO2Emission 	709.19351567145
scalar RSUExampleScenario.node[122].veinsmobility 	startTime 	732.1
scalar RSUExampleScenario.node[122].veinsmobility 	totalTime 	227.1
scalar RSUExampleScenario.node[122].veinsmobility 	stopTime 	959.3
scalar RSUExampleScenario.node[122].veinsmobility 	minSpeed 	0.25543601383548
scalar RSUExampleScenario.node[122].veinsmobility 	maxSpeed 	18.999673531919
scalar RSUExampleScenario.node[122].veinsmobility 	totalDistance 	3409.7089381994
scalar RSUExampleScenario.node[122].veinsmobility 	totalCO2Emission 	708.8994530902
scalar RSUExampleScenario.node[123].veinsmobility 	startTime 	738.1
scalar RSUExampleScenario.node[123].veinsmobility 	totalTime 	227.1
scalar RSUExampleScenario.node[123].veinsmobility 	stopTime 	965.3
scalar RSUExampleScenario.node[123].veinsmobility 	minSpeed 	0.24884627108905
scalar RSUExampleScenario.node[123].veinsmobility 	maxSpeed 	18.999389210462
scalar RSUExampleScenario.node[123].veinsmobility 	totalDistance 	3409.4746471034
scalar RSUExampleScenario.node[123].veinsmobility 	totalCO2Emission 	709.03516845735
scalar RSUExampleScenario.node[124].veinsmobility 	startTime 	744.1
scalar RSUExampleScenario.node[124].veinsmobility 	totalTime 	227.2
scalar RSUExampleScenario.node[124].veinsmobility 	stopTime 	971.4
scalar RSUExampleScenario.node[124].veinsmobility 	minSpeed 	0.25775509659667
scalar RSUExampleScenario.node[124].veinsmobility 	maxSpeed 	18.999999820904
scalar RSUExampleScenario.node[124].veinsmobility 	totalDistance 	3409.0855650206
scalar RSUExampleScenario.node[124].veinsmobility 	totalCO2Emission 	706.79182075588
scalar RSUExampleScenario.node[125].veinsmobility 	startTime 	750.1
scalar RSUExampleScenario.node[125].veinsmobility 	totalTime 	226.6
scalar RSUExampleScenario.node[125].veinsmobility 	stopTime 	976.8
scalar RSUExampleScenario.node[125].veinsmobility 	minSpeed 	0.25185004181066
scalar RSUExampleScenario.node[125].veinsmobility 	maxSpeed 	18.999736907205
scalar RSUExampleScenario.node[125].veinsmobility 	totalDistance 	3409.3927593824
scalar RSUExampleScenario.node[125].veinsmobility 	totalCO2Emission 	710.71395767284
scalar RSUExampleScenario.node[126].veinsmobility 	startTime 	756.1
scalar RSUExampleScenario.node[126].veinsmobility 	totalTime 	226.8
scalar RSUExampleScenario.node[126].veinsmobility 	stopTime 	983
scalar RSUExampleScenario.node[126].veinsmobility 	minSpeed 	0.24896656640782
scalar RSUExampleScenario.node[126].veinsmobility 	maxSpeed 	18.999931396556
scalar RSUExampleScenario.node[126].veinsmobility 	totalDistance 	3409.4295095817
scalar RSUExampleScenario.node[126].veinsmobility 	totalCO2Emission 	703.50570977958
scalar RSUExampleScenario.node[127].veinsmobility 	startTime 	762.1
scalar RSUExampleScenario.node[127].veinsmobility 	totalTime 	226.8
scalar RSUExampleScenario.node[127].veinsmobility 	stopTime 	989
scalar RSUExampleScenario.node[127].veinsmobility 	minSpeed 	0.24963826452405
scalar RSUExampleScenario.node[127].veinsmobility 	maxSpeed 	18.999852691807
scalar RSUExampleScenario.node[127].veinsmobility 	totalDistance 	3409.482663533
scalar RSUExampleScenario.node[127].veinsmobility 	totalCO2Emission 	706.90642007511
scalar RSUExampleScenario.node[128].veinsmobility 	startTime 	768.1
scalar RSUExampleScenario.node[128].veinsmobility 	totalTime 	227.4
scalar RSUExampleScenario.node[128].veinsmobility 	stopTime 	995.6
scalar RSUExampleScenario.node[128].veinsmobility 	minSpeed 	0.24812535164692
scalar RSUExampleScenario.node[128].veinsmobility 	maxSpeed 	18.999861144535
scalar RSUExampleScenario.node[128].veinsmobility 	totalDistance 	3409.5771793921
scalar RSUExampleScenario.node[128].veinsmobility 	totalCO2Emission 	709.3049544736
scalar RSUExampleScenario.node[129].veinsmobility 	startTime 	774.1
scalar RSUExampleScenario.node[129].veinsmobility 	totalTime 	227
scalar RSUExampleScenario.node[129].veinsmobility 	stopTime 	1001.2
scalar RSUExampleScenario.node[129].veinsmobility 	minSpeed 	0.25466923094308
scalar RSUExampleScenario.node[129].veinsmobility 	maxSpeed 	18.999854444142
scalar RSUExampleScenario.node[129].veinsmobility 	totalDistance 	3409.3795673675
scalar RSUExampleScenario.node[129].veinsmobility 	totalCO2Emission 	703.79089959475
scalar RSUExampleScenario.node[130].veinsmobility 	startTime 	780.1
scalar RSUExampleScenario.node[130].veinsmobility 	totalTime 	226.8
scalar RSUExampleScenario.node[130].veinsmobility 	stopTime 	1007
scalar RSUExampleScenario.node[130].veinsmobility 	minSpeed 	0.25697898396454
scalar RSUExampleScenario.node[130].veinsmobility 	maxSpeed 	18.999944107777
scalar RSUExampleScenario.node[130].veinsmobility 	totalDistance 	3409.4202636473
scalar RSUExampleScenario.node[130].veinsmobility 	totalCO2Emission 	704.05711139476
scalar RSUExampleScenario.node[131].veinsmobility 	startTime 	786.1
scalar RSUExampleScenario.node[131].veinsmobility 	totalTime 	227
scalar RSUExampleScenario.node[131].veinsmobility 	stopTime 	1013.2
scalar RSUExampleScenario.node[131].veinsmobility 	minSpeed 	0.25676711978647
scalar RSUExampleScenario.node[131].veinsmobility 	maxSpeed 	18.99982913478
scalar RSUExampleScenario.node[131].veinsmobility 	totalDistance 	3409.4615589063
scalar RSUExampleScenario.node[131].veinsmobility 	totalCO2Emission 	708.64770625083
scalar RSUExampleScenario.node[132].veinsmobility 	startTime 	792.1
scalar RSUExampleScenario.node[132].veinsmobility 	totalTime 	226.8
scalar RSUExampleScenario.node[132].veinsmobility 	stopTime 	1019
scalar RSUExampleScenario.node[132].veinsmobility 	minSpeed 	0.25790761901555
scalar RSUExampleScenario.node[132].veinsmobility 	maxSpeed 	18.99994930821
scalar RSUExampleScenario.node[132].veinsmobility 	totalDistance 	3409.4443346427
scalar RSUExampleScenario.node[132].veinsmobility 	totalCO2Emission 	707.87147507238
scalar RSUExampleScenario.node[133].veinsmobility 	startTime 	798.1
scalar RSUExampleScenario.node[133].veinsmobility 	totalTime 	226.9
scalar RSUExampleScenario.node[133].veinsmobility 	stopTime 	1025.1
scalar RSUExampleScenario.node[133].veinsmobility 	minSpeed 	0.25974720711843
scalar RSUExampleScenario.node[133].veinsmobility 	maxSpeed 	18.999480343971
scalar RSUExampleScenario.node[133].veinsmobility 	totalDistance 	3409.3286636428
scalar RSUExampleScenario.node[133].veinsmobility 	totalCO2Emission 	705.67845715074
scalar RSUExampleScenario.node[134].veinsmobility 	startTime 	804.1
scalar RSUExampleScenario.node[134].veinsmobility 	totalTime 	226.8
scalar RSUExampleScenario.node[134].veinsmobility 	stopTime 	1031
scalar RSUExampleScenario.node[134].veinsmobility 	minSpeed 	0.24770084890258
scalar RSUExampleScenario.node[134].veinsmobility 	maxSpeed 	18.999889826537
scalar RSUExampleScenario.node[134].veinsmobility 	totalDistance 	3409.5933379259
scalar RSUExampleScenario.node[134].veinsmobility 	totalCO2Emission 	706.88818477542
scalar RSUExampleScenario.node[135].veinsmobility 	startTime 	810.1
scalar RSUExampleScenario.node[135].veinsmobility 	totalTime 	226.7
scalar RSUExampleScenario.node[135].veinsmobility 	stopTime 	1036.9
scalar RSUExampleScenario.node[135].veinsmobility 	minSpeed 	0.24780264369422
scalar RSUExampleScenario.node[135].veinsmobility 	maxSpeed 	18.999853356916
scalar RSUExampleScenario.node[135].veinsmobility 	totalDistance 	3409.5625157355
scalar RSUExampleScenario.node[135].veinsmobility 	totalCO2Emission 	701.42219165856
scalar RSUExampleScenario.node[136].veinsmobility 	startTime 	816.1
scalar RSUExampleScenario.node[136].veinsmobility 	totalTime 	226.9
scalar RSUExampleScenario.node[136].veinsmobility 	stopTime 	1043.1
scalar RSUExampleScenario.node[136].veinsmobility 	minSpeed 	0.2536626471472
scalar RSUExampleScenario.node[136].veinsmobility 	maxSpeed 	18.999014438735
scalar RSUExampleScenario.node[136].veinsmobility 	totalDistance 	3409.8306788877
scalar RSUExampleScenario.node[136].veinsmobility 	totalCO2Emission 	708.76308494133
scalar RSUExampleScenario.node[137].veinsmobility 	startTime 	822.1
scalar RSUExampleScenario.node[137].veinsmobility 	totalTime 	226.9
scalar RSUExampleScenario.node[137].veinsmobility 	stopTime 	1049.1
scalar RSUExampleScenario.node[137].veinsmobility 	minSpeed 	0.2513841272979
scalar RSUExampleScenario.node[137].veinsmobility 	maxSpeed 	18.999499494191
scalar RSUExampleScenario.node[137].veinsmobility 	totalDistance 	3409.505791473
scalar RSUExampleScenario.node[137].veinsmobility 	totalCO2Emission 	704.53368666841
scalar RSUExampleScenario.node[138].veinsmobility 	startTime 	828.1
scalar RSUExampleScenario.node[138].veinsmobility 	totalTime 	226.9
scalar RSUExampleScenario.node[138].veinsmobility 	stopTime 	1055.1
scalar RSUExampleScenario.node[138].veinsmobility 	minSpeed 	0.24763873155718
scalar RSUExampleScenario.node[138].veinsmobility 	maxSpeed 	18.999986810514
scalar RSUExampleScenario.node[138].veinsmobility 	totalDistance 	3409.5212257161
scalar RSUExampleScenario.node[138].veinsmobility 	totalCO2Emission 	709.34102009841
scalar RSUExampleScenario.node[139].veinsmobility 	startTime 	834.1
scalar RSUExampleScenario.node[139].veinsmobility 	totalTime 	226.8
scalar RSUExampleScenario.node[139].veinsmobility 	stopTime 	1061
scalar RSUExampleScenario.node[139].veinsmobility 	minSpeed 	0.24723929312173
scalar RSUExampleScenario.node[139].veinsmobility 	maxSpeed 	18.999710018612
scalar RSUExampleScenario.node[139].veinsmobility 	totalDistance 	3409.3272953818
scalar RSUExampleScenario.node[139].veinsmobility 	totalCO2Emission 	709.58660078045
scalar RSUExampleScenario.node[140].veinsmobility 	startTime 	840.1
scalar RSUExampleScenario.node[140].veinsmobility 	totalTime 	226.8
scalar RSUExampleScenario.node[140].veinsmobility 	stopTime 	1067
scalar RSUExampleScenario.node[140].veinsmobility 	minSpeed 	0.25229578860244
scalar RSUExampleScenario.node[140].veinsmobility 	maxSpeed 	18.999462138445
scalar RSUExampleScenario.node[140].veinsmobility 	totalDistance 	3409.2811014154
scalar RSUExampleScenario.node[140].veinsmobility 	totalCO2Emission 	703.2860370037
scalar RSUExampleScenario.node[141].veinsmobility 	startTime 	846.1
scalar RSUExampleScenario.node[141].veinsmobility 	totalTime 	226.9
scalar RSUExampleScenario.node[141].veinsmobility 	stopTime 	1073.1
scalar RSUExampleScenario.node[141].veinsmobility 	minSpeed 	0.25970995194628
scalar RSUExampleScenario.node[141].veinsmobility 	maxSpeed 	18.999577476836
scalar RSUExampleScenario.node[141].veinsmobility 	totalDistance 	3409.719972557
scalar RSUExampleScenario.node[141].veinsmobility 	totalCO2Emission 	710.14247410083
scalar RSUExampleScenario.node[142].veinsmobility 	startTime 	852.1
scalar RSUExampleScenario.node[142].veinsmobility 	totalTime 	227.1
scalar RSUExampleScenario.node[142].veinsmobility 	stopTime 	1079.3
scalar RSUExampleScenario.node[142].veinsmobility 	minSpeed 	0.24862580112391
scalar RSUExampleScenario.node[142].veinsmobility 	maxSpeed 	18.999693194486
scalar RSUExampleScenario.node[142].veinsmobility 	totalDistance 	3409.0833092779
scalar RSUExampleScenario.node[142].veinsmobility 	totalCO2Emission 	704.89583456116
scalar RSUExampleScenario.node[143].veinsmobility 	startTime 	858.1
scalar RSUExampleScenario.node[143].veinsmobility 	totalTime 	227
scalar RSUExampleScenario.node[143].veinsmobility 	stopTime 	1085.2
scalar RSUExampleScenario.node[143].veinsmobility 	minSpeed 	0.24770589526859
scalar RSUExampleScenario.node[143].veinsmobility 	maxSpeed 	18.999932852718
scalar RSUExampleScenario.node[143].veinsmobility 	totalDistance 	3409.4082095962
scalar RSUExampleScenario.node[143].veinsmobility 	totalCO2Emission 	711.40346899562
scalar RSUExampleScenario.node[144].veinsmobility 	startTime 	864.1
scalar RSUExampleScenario.node[144].veinsmobility 	totalTime 	227.2
scalar RSUExampleScenario.node[144].veinsmobility 	stopTime 	1091.4
scalar RSUExampleScenario.node[144].veinsmobility 	minSpeed 	0.256373885985
scalar RSUExampleScenario.node[144].veinsmobility 	maxSpeed 	18.999682278458
scalar RSUExampleScenario.node[144].veinsmobility 	totalDistance 	3409.8715171673
scalar RSUExampleScenario.node[144].veinsmobility 	totalCO2Emission 	708.66519910682
scalar RSUExampleScenario.node[145].veinsmobility 	startTime 	870.1
scalar RSUExampleScenario.node[145].veinsmobility 	totalTime 	227
scalar RSUExampleScenario.node[145].veinsmobility 	stopTime 	1097.2
scalar RSUExampleScenario.node[145].veinsmobility 	minSpeed 	0.24926317236829
scalar RSUExampleScenario.node[145].veinsmobility 	maxSpeed 	18.999965311498
scalar RSUExampleScenario.node[145].veinsmobility 	totalDistance 	3409.4170014871
scalar RSUExampleScenario.node[145].veinsmobility 	totalCO2Emission 	708.3769544425
scalar RSUExampleScenario.node[146].veinsmobility 	startTime 	876.1
scalar RSUExampleScenario.node[146].veinsmobility 	totalTime 	226.8
scalar RSUExampleScenario.node[146].veinsmobility 	stopTime 	1103
scalar RSUExampleScenario.node[146].veinsmobility 	minSpeed 	0.24874302244745
scalar RSUExampleScenario.node[146].veinsmobility 	maxSpeed 	18.999949598087
scalar RSUExampleScenario.node[146].veinsmobility 	totalDistance 	3409.634755734
scalar RSUExampleScenario.node[146].veinsmobility 	totalCO2Emission 	705.4453844963
scalar RSUExampleScenario.node[147].veinsmobility 	startTime 	882.1
scalar RSUExampleScenario.node[147].veinsmobility 	totalTime 	227.1
scalar RSUExampleScenario.node[147].veinsmobility 	stopTime 	1109.3
scalar RSUExampleScenario.node[147].veinsmobility 	minSpeed 	0.24703844768228
scalar RSUExampleScenario.node[147].veinsmobility 	maxSpeed 	18.999574013483
scalar RSUExampleScenario.node[147].veinsmobility 	totalDistance 	3409.1685065595
scalar RSUExampleScenario.node[147].veinsmobility 	totalCO2Emission 	705.95440345069
scalar RSUExampleScenario.node[148].veinsmobility 	startTime 	888.1
scalar RSUExampleScenario.node[148].veinsmobility 	totalTime 	226.6
scalar RSUExampleScenario.node[148].veinsmobility 	stopTime 	1114.8
scalar RSUExampleScenario.node[148].veinsmobility 	minSpeed 	0.25678000159212
scalar RSUExampleScenario.node[148].veinsmobility 	maxSpeed 	18.999927205136
scalar RSUExampleScenario.node[148].veinsmobility 	totalDistance 	3409.5387712377
scalar RSUExampleScenario.node[148].veinsmobility 	totalCO2Emission 	708.40140095066
scalar RSUExampleScenario.node[149].veinsmobility 	startTime 	894.1
scalar RSUExampleScenario.node[149].veinsmobility 	totalTime 	226.8
scalar RSUExampleScenario.node[149].veinsmobility 	stopTime 	1121
scalar RSUExampleScenario.node[149].veinsmobility 	minSpeed 	0.25147147050151
scalar RSUExampleScenario.node[149].veinsmobility 	maxSpeed 	18.999965698293
scalar RSUExampleScenario.node[149].veinsmobility 	totalDistance 	3409.8277992925
scalar RSUExampleScenario.node[149].veinsmobility 	totalCO2Emission 	703.65174591154
scalar RSUExampleScenario.node[150].veinsmobility 	startTime 	900.1
scalar RSUExampleScenario.node[150].veinsmobility 	totalTime 	226.8
scalar RSUExampleScenario.node[150].veinsmobility 	stopTime 	1127
scalar RSUExampleScenario.node[150].veinsmobility 	minSpeed 	0.25793014475773
scalar RSUExampleScenario.node[150].veinsmobility 	maxSpeed 	18.999608711156
scalar RSUExampleScenario.node[150].veinsmobility 	totalDistance 	3409.7137404915
scalar RSUExampleScenario.node[150].veinsmobility 	totalCO2Emission 	707.90816892618
scalar RSUExampleScenario.node[151].veinsmobility 	startTime 	906.1
scalar RSUExampleScenario.node[151].veinsmobility 	totalTime 	226.9
scalar RSUExampleScenario.node[151].veinsmobility 	stopTime 	1133.1
scalar RSUExampleScenario.node[151].veinsmobility 	minSpeed 	0.24735427744756
scalar RSUExampleScenario.node[151].veinsmobility 	maxSpeed 	18.99998533607
scalar RSUExampleScenario.node[151].veinsmobility 	totalDistance 	3409.9682840265
scalar RSUExampleScenario.node[151].veinsmobility 	totalCO2Emission 	704.60486639786
scalar RSUExampleScenario.node[152].veinsmobility 	startTime 	912.1
scalar RSUExampleScenario.node[152].veinsmobility 	totalTime 	226.9
scalar RSUExampleScenario.node[152].veinsmobility 	stopTime 	1139.1
scalar RSUExampleScenario.node[152].veinsmobility 	minSpeed 	0.25775008029584
scalar RSUExampleScenario.node[152].veinsmobility 	maxSpeed 	18.999980104945
scalar RSUExampleScenario.node[152].veinsmobility 	totalDistance 	3409.7502830621
scalar RSUExampleScenario.node[152].veinsmobility 	totalCO2Emission 	707.39571761884
[...]
scalar RSUExampleScenario.node[262].veinsmobility 	startTime 	1572.1
scalar RSUExampleScenario.node[262].veinsmobility 	totalTime 	227
scalar RSUExampleScenario.node[262].veinsmobility 	stopTime 	1799.2
scalar RSUExampleScenario.node[262].veinsmobility 	minSpeed 	0.25666456708149
scalar RSUExampleScenario.node[262].veinsmobility 	maxSpeed 	18.998666040078
scalar RSUExampleScenario.node[262].veinsmobility 	totalDistance 	3409.7096941772
scalar RSUExampleScenario.node[262].veinsmobility 	totalCO2Emission 	705.04000400415
scalar RSUExampleScenario.node[263].veinsmobility 	startTime 	1578.1
scalar RSUExampleScenario.node[263].veinsmobility 	totalTime 	226.9
scalar RSUExampleScenario.node[263].veinsmobility 	stopTime 	1805.1
scalar RSUExampleScenario.node[263].veinsmobility 	minSpeed 	0.25382903765701
scalar RSUExampleScenario.node[263].veinsmobility 	maxSpeed 	18.999991837179
scalar RSUExampleScenario.node[263].veinsmobility 	totalDistance 	3409.6372467301
scalar RSUExampleScenario.node[263].veinsmobility 	totalCO2Emission 	710.75563419577
scalar RSUExampleScenario.node[264].veinsmobility 	startTime 	1584.1
scalar RSUExampleScenario.node[264].veinsmobility 	totalTime 	226.8
scalar RSUExampleScenario.node[264].veinsmobility 	stopTime 	1811
scalar RSUExampleScenario.node[264].veinsmobility 	minSpeed 	0.25786753603583
scalar RSUExampleScenario.node[264].veinsmobility 	maxSpeed 	18.999682496963
scalar RSUExampleScenario.node[264].veinsmobility 	totalDistance 	3409.4660769798
scalar RSUExampleScenario.node[264].veinsmobility 	totalCO2Emission 	702.43977377727
scalar RSUExampleScenario.node[265].veinsmobility 	startTime 	1590.1
scalar RSUExampleScenario.node[265].veinsmobility 	totalTime 	226.7
scalar RSUExampleScenario.node[265].veinsmobility 	stopTime 	1816.9
scalar RSUExampleScenario.node[265].veinsmobility 	minSpeed 	0.24909304893832
scalar RSUExampleScenario.node[265].veinsmobility 	maxSpeed 	18.999947589382
scalar RSUExampleScenario.node[265].veinsmobility 	totalDistance 	3409.3249840028
scalar RSUExampleScenario.node[265].veinsmobility 	totalCO2Emission 	707.73626508857
scalar RSUExampleScenario.node[266].veinsmobility 	startTime 	1596.1
scalar RSUExampleScenario.node[266].veinsmobility 	totalTime 	227
scalar RSUExampleScenario.node[266].veinsmobility 	stopTime 	1823.2
scalar RSUExampleScenario.node[266].veinsmobility 	minSpeed 	0.24794679077133
scalar RSUExampleScenario.node[266].veinsmobility 	maxSpeed 	18.999938774377
scalar RSUExampleScenario.node[266].veinsmobility 	totalDistance 	3409.3037217226
scalar RSUExampleScenario.node[266].veinsmobility 	totalCO2Emission 	706.70790219771
scalar RSUExampleScenario.node[267].veinsmobility 	startTime 	1602.1
scalar RSUExampleScenario.node[267].veinsmobility 	totalTime 	226.9
scalar RSUExampleScenario.node[267].veinsmobility 	stopTime 	1829.1
scalar RSUExampleScenario.node[267].veinsmobility 	minSpeed 	0.25066586092929
scalar RSUExampleScenario.node[267].veinsmobility 	maxSpeed 	18.99996878929
scalar RSUExampleScenario.node[267].veinsmobility 	totalDistance 	3409.3927255765
scalar RSUExampleScenario.node[267].veinsmobility 	totalCO2Emission 	705.80610857239
scalar RSUExampleScenario.node[268].veinsmobility 	startTime 	1608.1
scalar RSUExampleScenario.node[268].veinsmobility 	totalTime 	226.8
scalar RSUExampleScenario.node[268].veinsmobility 	stopTime 	1835
scalar RSUExampleScenario.node[268].veinsmobility 	minSpeed 	0.24957405730453
scalar RSUExampleScenario.node[268].veinsmobility 	maxSpeed 	18.99994095467
scalar RSUExampleScenario.node[268].veinsmobility 	totalDistance 	3409.5138528405
scalar RSUExampleScenario.node[268].veinsmobility 	totalCO2Emission 	707.7419942157
scalar RSUExampleScenario.node[269].veinsmobility 	startTime 	1614.1
scalar RSUExampleScenario.node[269].veinsmobility 	totalTime 	226.8
scalar RSUExampleScenario.node[269].veinsmobility 	stopTime 	1841
scalar RSUExampleScenario.node[269].veinsmobility 	minSpeed 	0.258235344165
scalar RSUExampleScenario.node[269].veinsmobility 	maxSpeed 	18.99970444452
scalar RSUExampleScenario.node[269].veinsmobility 	totalDistance 	3409.4532634777
scalar RSUExampleScenario.node[269].veinsmobility 	totalCO2Emission 	708.96003486728
scalar RSUExampleScenario.node[270].veinsmobility 	startTime 	1620.1
scalar RSUExampleScenario.node[270].veinsmobility 	totalTime 	226.8
scalar RSUExampleScenario.node[270].veinsmobility 	stopTime 	1847
scalar RSUExampleScenario.node[270].veinsmobility 	minSpeed 	0.25550875342404
scalar RSUExampleScenario.node[270].veinsmobility 	maxSpeed 	18.999826058736
scalar RSUExampleScenario.node[270].veinsmobility 	totalDistance 	3409.2111149172
scalar RSUExampleScenario.node[270].veinsmobility 	totalCO2Emission 	701.83476722936
scalar RSUExampleScenario.node[271].veinsmobility 	startTime 	1626.1
scalar RSUExampleScenario.node[271].veinsmobility 	totalTime 	226.8
scalar RSUExampleScenario.node[271].veinsmobility 	stopTime 	1853
scalar RSUExampleScenario.node[271].veinsmobility 	minSpeed 	0.25932115478348
scalar RSUExampleScenario.node[271].veinsmobility 	maxSpeed 	18.99980097245
scalar RSUExampleScenario.node[271].veinsmobility 	totalDistance 	3409.7998528062
scalar RSUExampleScenario.node[271].veinsmobility 	totalCO2Emission 	706.69822276438
scalar RSUExampleScenario.node[272].veinsmobility 	startTime 	1632.1
scalar RSUExampleScenario.node[272].veinsmobility 	totalTime 	227.2
scalar RSUExampleScenario.node[272].veinsmobility 	stopTime 	1859.4
scalar RSUExampleScenario.node[272].veinsmobility 	minSpeed 	0.25373365529208
scalar RSUExampleScenario.node[272].veinsmobility 	maxSpeed 	18.999981153156
scalar RSUExampleScenario.node[272].veinsmobility 	totalDistance 	3409.5746994337
scalar RSUExampleScenario.node[272].veinsmobility 	totalCO2Emission 	705.46614939614
scalar RSUExampleScenario.node[273].veinsmobility 	startTime 	1638.1
scalar RSUExampleScenario.node[273].veinsmobility 	totalTime 	226.9
scalar RSUExampleScenario.node[273].veinsmobility 	stopTime 	1865.1
scalar RSUExampleScenario.node[273].veinsmobility 	minSpeed 	0.25631895121699
scalar RSUExampleScenario.node[273].veinsmobility 	maxSpeed 	18.999956256831
scalar RSUExampleScenario.node[273].veinsmobility 	totalDistance 	3410.0545024148
scalar RSUExampleScenario.node[273].veinsmobility 	totalCO2Emission 	708.52204431226
scalar RSUExampleScenario.node[274].veinsmobility 	startTime 	1644.1
scalar RSUExampleScenario.node[274].veinsmobility 	totalTime 	226.8
scalar RSUExampleScenario.node[274].veinsmobility 	stopTime 	1871
scalar RSUExampleScenario.node[274].veinsmobility 	minSpeed 	0.25281219127425
scalar RSUExampleScenario.node[274].veinsmobility 	maxSpeed 	18.999600507291
scalar RSUExampleScenario.node[274].veinsmobility 	totalDistance 	3409.6455795391
scalar RSUExampleScenario.node[274].veinsmobility 	totalCO2Emission 	702.69514443463
scalar RSUExampleScenario.node[275].veinsmobility 	startTime 	1650.1
scalar RSUExampleScenario.node[275].veinsmobility 	totalTime 	226.9
scalar RSUExampleScenario.node[275].veinsmobility 	stopTime 	1877.1
scalar RSUExampleScenario.node[275].veinsmobility 	minSpeed 	0.24770896881889
scalar RSUExampleScenario.node[275].veinsmobility 	maxSpeed 	18.99987624502
scalar RSUExampleScenario.node[275].veinsmobility 	totalDistance 	3409.5131452938
scalar RSUExampleScenario.node[275].veinsmobility 	totalCO2Emission 	707.44658632634
scalar RSUExampleScenario.node[276].veinsmobility 	startTime 	1656.1
scalar RSUExampleScenario.node[276].veinsmobility 	totalTime 	226.8
scalar RSUExampleScenario.node[276].veinsmobility 	stopTime 	1883
scalar RSUExampleScenario.node[276].veinsmobility 	minSpeed 	0.25377983667725
scalar RSUExampleScenario.node[276].veinsmobility 	maxSpeed 	18.99969752314
scalar RSUExampleScenario.node[276].veinsmobility 	totalDistance 	3409.4113421562
scalar RSUExampleScenario.node[276].veinsmobility 	totalCO2Emission 	705.79957170239
scalar RSUExampleScenario.node[277].veinsmobility 	startTime 	1662.1
scalar RSUExampleScenario.node[277].veinsmobility 	totalTime 	226.7
scalar RSUExampleScenario.node[277].veinsmobility 	stopTime 	1888.9
scalar RSUExampleScenario.node[277].veinsmobility 	minSpeed 	0.25990115149086
scalar RSUExampleScenario.node[277].veinsmobility 	maxSpeed 	18.999791697098
scalar RSUExampleScenario.node[277].veinsmobility 	totalDistance 	3409.4142517915
scalar RSUExampleScenario.node[277].veinsmobility 	totalCO2Emission 	707.89652175184
scalar RSUExampleScenario.node[278].veinsmobility 	startTime 	1668.1
scalar RSUExampleScenario.node[278].veinsmobility 	totalTime 	226.9
scalar RSUExampleScenario.node[278].veinsmobility 	stopTime 	1895.1
scalar RSUExampleScenario.node[278].veinsmobility 	minSpeed 	0.25781696987618
scalar RSUExampleScenario.node[278].veinsmobility 	maxSpeed 	18.999844714801
scalar RSUExampleScenario.node[278].veinsmobility 	totalDistance 	3409.6125952317
scalar RSUExampleScenario.node[278].veinsmobility 	totalCO2Emission 	713.50202941845
scalar RSUExampleScenario.node[279].veinsmobility 	startTime 	1674.1
scalar RSUExampleScenario.node[279].veinsmobility 	totalTime 	227.2
scalar RSUExampleScenario.node[279].veinsmobility 	stopTime 	1901.4
scalar RSUExampleScenario.node[279].veinsmobility 	minSpeed 	0.24922268926702
scalar RSUExampleScenario.node[279].veinsmobility 	maxSpeed 	18.999932844243
scalar RSUExampleScenario.node[279].veinsmobility 	totalDistance 	3409.2487853736
scalar RSUExampleScenario.node[279].veinsmobility 	totalCO2Emission 	703.42093184818
scalar RSUExampleScenario.node[280].veinsmobility 	startTime 	1680.1
scalar RSUExampleScenario.node[280].veinsmobility 	totalTime 	226.8
scalar RSUExampleScenario.node[280].veinsmobility 	stopTime 	1907
scalar RSUExampleScenario.node[280].veinsmobility 	minSpeed 	0.24897155054286
scalar RSUExampleScenario.node[280].veinsmobility 	maxSpeed 	18.999971182882
scalar RSUExampleScenario.node[280].veinsmobility 	totalDistance 	3409.5485647791
scalar RSUExampleScenario.node[280].veinsmobility 	totalCO2Emission 	705.49918540023
scalar RSUExampleScenario.node[281].veinsmobility 	startTime 	1686.1
scalar RSUExampleScenario.node[281].veinsmobility 	totalTime 	226.8
scalar RSUExampleScenario.node[281].veinsmobility 	stopTime 	1913
scalar RSUExampleScenario.node[281].veinsmobility 	minSpeed 	0.25993598123803
scalar RSUExampleScenario.node[281].veinsmobility 	maxSpeed 	18.999850536727
scalar RSUExampleScenario.node[281].veinsmobility 	totalDistance 	3409.2031155696
scalar RSUExampleScenario.node[281].veinsmobility 	totalCO2Emission 	708.70587150611
scalar RSUExampleScenario.node[282].veinsmobility 	startTime 	1692.1
scalar RSUExampleScenario.node[282].veinsmobility 	totalTime 	226.9
scalar RSUExampleScenario.node[282].veinsmobility 	stopTime 	1919.1
scalar RSUExampleScenario.node[282].veinsmobility 	minSpeed 	0.25370145925903
scalar RSUExampleScenario.node[282].veinsmobility 	maxSpeed 	18.999925915296
scalar RSUExampleScenario.node[282].veinsmobility 	totalDistance 	3409.5385057253
scalar RSUExampleScenario.node[282].veinsmobility 	totalCO2Emission 	706.84021713243
scalar RSUExampleScenario.node[283].veinsmobility 	startTime 	1698.1
scalar RSUExampleScenario.node[283].veinsmobility 	totalTime 	226.8
scalar RSUExampleScenario.node[283].veinsmobility 	stopTime 	1925
scalar RSUExampleScenario.node[283].veinsmobility 	minSpeed 	0.25395854350505
scalar RSUExampleScenario.node[283].veinsmobility 	maxSpeed 	18.999772254792
scalar RSUExampleScenario.node[283].veinsmobility 	totalDistance 	3409.5736144713
scalar RSUExampleScenario.node[283].veinsmobility 	totalCO2Emission 	708.91190869874
scalar RSUExampleScenario.node[284].veinsmobility 	startTime 	1704.1
scalar RSUExampleScenario.node[284].veinsmobility 	totalTime 	227
scalar RSUExampleScenario.node[284].veinsmobility 	stopTime 	1931.2
scalar RSUExampleScenario.node[284].veinsmobility 	minSpeed 	0.25960841232282
scalar RSUExampleScenario.node[284].veinsmobility 	maxSpeed 	18.999381922719
scalar RSUExampleScenario.node[284].veinsmobility 	totalDistance 	3409.4464902459
scalar RSUExampleScenario.node[284].veinsmobility 	totalCO2Emission 	707.7224268174
scalar RSUExampleScenario.node[285].veinsmobility 	startTime 	1710.1
scalar RSUExampleScenario.node[285].veinsmobility 	totalTime 	226.5
scalar RSUExampleScenario.node[285].veinsmobility 	stopTime 	1936.7
scalar RSUExampleScenario.node[285].veinsmobility 	minSpeed 	0.24713698946172
scalar RSUExampleScenario.node[285].veinsmobility 	maxSpeed 	18.999935477648
scalar RSUExampleScenario.node[285].veinsmobility 	totalDistance 	3409.145011
scalar RSUExampleScenario.node[285].veinsmobility 	totalCO2Emission 	706.17688359271
scalar RSUExampleScenario.node[286].veinsmobility 	startTime 	1716.1
scalar RSUExampleScenario.node[286].veinsmobility 	totalTime 	226.8
scalar RSUExampleScenario.node[286].veinsmobility 	stopTime 	1943
scalar RSUExampleScenario.node[286].veinsmobility 	minSpeed 	0.25055880565289
scalar RSUExampleScenario.node[286].veinsmobility 	maxSpeed 	18.999953719073
scalar RSUExampleScenario.node[286].veinsmobility 	totalDistance 	3409.7903792305
scalar RSUExampleScenario.node[286].veinsmobility 	totalCO2Emission 	707.96692039137
scalar RSUExampleScenario.node[287].veinsmobility 	startTime 	1722.1
scalar RSUExampleScenario.node[287].veinsmobility 	totalTime 	226.8
scalar RSUExampleScenario.node[287].veinsmobility 	stopTime 	1949
scalar RSUExampleScenario.node[287].veinsmobility 	minSpeed 	0.25580430132174
scalar RSUExampleScenario.node[287].veinsmobility 	maxSpeed 	18.999931751871
scalar RSUExampleScenario.node[287].veinsmobility 	totalDistance 	3409.4021907069
scalar RSUExampleScenario.node[287].veinsmobility 	totalCO2Emission 	708.3264592837
scalar RSUExampleScenario.node[288].veinsmobility 	startTime 	1728.1
scalar RSUExampleScenario.node[288].veinsmobility 	totalTime 	227
scalar RSUExampleScenario.node[288].veinsmobility 	stopTime 	1955.2
scalar RSUExampleScenario.node[288].veinsmobility 	minSpeed 	0.25077442695946
scalar RSUExampleScenario.node[288].veinsmobility 	maxSpeed 	18.999982072788
scalar RSUExampleScenario.node[288].veinsmobility 	totalDistance 	3409.2847564641
scalar RSUExampleScenario.node[288].veinsmobility 	totalCO2Emission 	705.23703147839
scalar RSUExampleScenario.node[289].veinsmobility 	startTime 	1734.1
scalar RSUExampleScenario.node[289].veinsmobility 	totalTime 	226.9
scalar RSUExampleScenario.node[289].veinsmobility 	stopTime 	1961.1
scalar RSUExampleScenario.node[289].veinsmobility 	minSpeed 	0.24986419789051
scalar RSUExampleScenario.node[289].veinsmobility 	maxSpeed 	18.999780497036
scalar RSUExampleScenario.node[289].veinsmobility 	totalDistance 	3409.7313329969
scalar RSUExampleScenario.node[289].veinsmobility 	totalCO2Emission 	705.84718980543
scalar RSUExampleScenario.node[290].veinsmobility 	startTime 	1740.1
scalar RSUExampleScenario.node[290].veinsmobility 	totalTime 	226.9
scalar RSUExampleScenario.node[290].veinsmobility 	stopTime 	1967.1
scalar RSUExampleScenario.node[290].veinsmobility 	minSpeed 	0.25886473275535
scalar RSUExampleScenario.node[290].veinsmobility 	maxSpeed 	18.999883024564
scalar RSUExampleScenario.node[290].veinsmobility 	totalDistance 	3409.1442356984
scalar RSUExampleScenario.node[290].veinsmobility 	totalCO2Emission 	708.57404976674
scalar RSUExampleScenario.node[291].veinsmobility 	startTime 	1746.1
scalar RSUExampleScenario.node[291].veinsmobility 	totalTime 	226.9
scalar RSUExampleScenario.node[291].veinsmobility 	stopTime 	1973.1
scalar RSUExampleScenario.node[291].veinsmobility 	minSpeed 	0.25291131812474
scalar RSUExampleScenario.node[291].veinsmobility 	maxSpeed 	18.999909145501
scalar RSUExampleScenario.node[291].veinsmobility 	totalDistance 	3410.0218817223
scalar RSUExampleScenario.node[291].veinsmobility 	totalCO2Emission 	708.1418258863
scalar RSUExampleScenario.node[292].veinsmobility 	startTime 	1752.1
scalar RSUExampleScenario.node[292].veinsmobility 	totalTime 	227.1
scalar RSUExampleScenario.node[292].veinsmobility 	stopTime 	1979.3
scalar RSUExampleScenario.node[292].veinsmobility 	minSpeed 	0.25965026028617
scalar RSUExampleScenario.node[292].veinsmobility 	maxSpeed 	18.999972543397
scalar RSUExampleScenario.node[292].veinsmobility 	totalDistance 	3409.184050965
scalar RSUExampleScenario.node[292].veinsmobility 	totalCO2Emission 	702.89696277414
scalar RSUExampleScenario.node[293].veinsmobility 	startTime 	1758.1
scalar RSUExampleScenario.node[293].veinsmobility 	totalTime 	226.8
scalar RSUExampleScenario.node[293].veinsmobility 	stopTime 	1985
scalar RSUExampleScenario.node[293].veinsmobility 	minSpeed 	0.25870509833493
scalar RSUExampleScenario.node[293].veinsmobility 	maxSpeed 	18.999461194144
scalar RSUExampleScenario.node[293].veinsmobility 	totalDistance 	3409.5957553024
scalar RSUExampleScenario.node[293].veinsmobility 	totalCO2Emission 	712.31029257215
scalar RSUExampleScenario.node[294].veinsmobility 	startTime 	1764.1
scalar RSUExampleScenario.node[294].veinsmobility 	totalTime 	227
scalar RSUExampleScenario.node[294].veinsmobility 	stopTime 	1991.2
scalar RSUExampleScenario.node[294].veinsmobility 	minSpeed 	0.25461367828143
scalar RSUExampleScenario.node[294].veinsmobility 	maxSpeed 	18.999875384229
scalar RSUExampleScenario.node[294].veinsmobility 	totalDistance 	3409.1098461592
scalar RSUExampleScenario.node[294].veinsmobility 	totalCO2Emission 	707.93898824282
scalar RSUExampleScenario.node[295].veinsmobility 	startTime 	1770.1
scalar RSUExampleScenario.node[295].veinsmobility 	totalTime 	226.6
scalar RSUExampleScenario.node[295].veinsmobility 	stopTime 	1996.8
scalar RSUExampleScenario.node[295].veinsmobility 	minSpeed 	0.25118182071997
scalar RSUExampleScenario.node[295].veinsmobility 	maxSpeed 	18.999738793143
scalar RSUExampleScenario.node[295].veinsmobility 	totalDistance 	3409.6239061314
scalar RSUExampleScenario.node[295].veinsmobility 	totalCO2Emission 	706.4122230009
scalar RSUExampleScenario.node[296].veinsmobility 	startTime 	1776.1
scalar RSUExampleScenario.node[296].veinsmobility 	totalTime 	223.8
scalar RSUExampleScenario.node[296].veinsmobility 	stopTime 	2000
scalar RSUExampleScenario.node[296].veinsmobility 	minSpeed 	0.25987964178133
scalar RSUExampleScenario.node[296].veinsmobility 	maxSpeed 	18.999763516758
scalar RSUExampleScenario.node[296].veinsmobility 	totalDistance 	3389.0088959421
scalar RSUExampleScenario.node[296].veinsmobility 	totalCO2Emission 	695.09307912891
scalar RSUExampleScenario.node[297].veinsmobility 	startTime 	1782.1
scalar RSUExampleScenario.node[297].veinsmobility 	totalTime 	217.8
scalar RSUExampleScenario.node[297].veinsmobility 	stopTime 	2000
scalar RSUExampleScenario.node[297].veinsmobility 	minSpeed 	0.25490147604072
scalar RSUExampleScenario.node[297].veinsmobility 	maxSpeed 	18.999888613306
scalar RSUExampleScenario.node[297].veinsmobility 	totalDistance 	3325.6430607396
scalar RSUExampleScenario.node[297].veinsmobility 	totalCO2Emission 	686.53924827254
scalar RSUExampleScenario.node[298].veinsmobility 	startTime 	1788.1
scalar RSUExampleScenario.node[298].veinsmobility 	totalTime 	211.8
scalar RSUExampleScenario.node[298].veinsmobility 	stopTime 	2000
scalar RSUExampleScenario.node[298].veinsmobility 	minSpeed 	0.25286680628825
scalar RSUExampleScenario.node[298].veinsmobility 	maxSpeed 	18.99990372393
scalar RSUExampleScenario.node[298].veinsmobility 	totalDistance 	3244.4977096535
scalar RSUExampleScenario.node[298].veinsmobility 	totalCO2Emission 	665.94858484807
scalar RSUExampleScenario.node[299].veinsmobility 	startTime 	1794.1
scalar RSUExampleScenario.node[299].veinsmobility 	totalTime 	205.8
scalar RSUExampleScenario.node[299].veinsmobility 	stopTime 	2000
scalar RSUExampleScenario.node[299].veinsmobility 	minSpeed 	0.24972663693898
scalar RSUExampleScenario.node[299].veinsmobility 	maxSpeed 	18.999875678373
scalar RSUExampleScenario.node[299].veinsmobility 	totalDistance 	3155.7874325029
scalar RSUExampleScenario.node[299].veinsmobility 	totalCO2Emission 	653.79244859905
