version 2
run statisticLeach-24-20150323-01:38:10-5168
attr c 26
attr configname statisticLeach
attr datetime 20150323-01:38:10
attr experiment statisticLeach
attr inifile omnetpp.ini
attr iterationvars "$p=1/25, $c=26"
attr iterationvars2 "$p=1/25, $c=26, $repetition=4"
attr measurement "$p=1/25, $c=26"
attr network RSUExampleScenario
attr p 1/25
attr processid 5168
attr repetition 4
attr replication #4
attr resultdir results
attr runnumber 24
attr seedset 24

scalar . 	c 	26
scalar RSUExampleScenario.node[0].appl 	meanClusterNodes 	0
scalar RSUExampleScenario.node[0].appl 	meanClusterHeadUtility 	0
scalar RSUExampleScenario.node[0].appl 	NumberofCH 	0
scalar RSUExampleScenario.node[0].appl 	NumberofON 	0.18918918918919
scalar RSUExampleScenario.node[0].appl 	NumberofFN 	0.81081081081081
scalar RSUExampleScenario.node[0].veinsmobility 	startTime 	0.1
scalar RSUExampleScenario.node[0].veinsmobility 	totalTime 	449.9
scalar RSUExampleScenario.node[0].veinsmobility 	stopTime 	450
scalar RSUExampleScenario.node[0].veinsmobility 	minSpeed 	0
scalar RSUExampleScenario.node[0].veinsmobility 	maxSpeed 	13.999907131621
scalar RSUExampleScenario.node[0].veinsmobility 	totalDistance 	3133.2748413201
scalar RSUExampleScenario.node[0].veinsmobility 	totalCO2Emission 	837.40613771132
scalar RSUExampleScenario.node[1].appl 	meanClusterNodes 	0
scalar RSUExampleScenario.node[1].appl 	meanClusterHeadUtility 	0
scalar RSUExampleScenario.node[1].appl 	NumberofCH 	0
scalar RSUExampleScenario.node[1].appl 	NumberofON 	0.18918918918919
scalar RSUExampleScenario.node[1].appl 	NumberofFN 	0.81081081081081
scalar RSUExampleScenario.node[1].veinsmobility 	startTime 	2.5
scalar RSUExampleScenario.node[1].veinsmobility 	totalTime 	447.5
scalar RSUExampleScenario.node[1].veinsmobility 	stopTime 	450
scalar RSUExampleScenario.node[1].veinsmobility 	minSpeed 	0
scalar RSUExampleScenario.node[1].veinsmobility 	maxSpeed 	13.999751450003
scalar RSUExampleScenario.node[1].veinsmobility 	totalDistance 	3080.3748114619
scalar RSUExampleScenario.node[1].veinsmobility 	totalCO2Emission 	831.1884759708
scalar RSUExampleScenario.node[10].appl 	meanClusterNodes 	6
scalar RSUExampleScenario.node[10].appl 	meanClusterHeadUtility 	37.309783280767
scalar RSUExampleScenario.node[10].appl 	NumberofCH 	0.027027027027027
scalar RSUExampleScenario.node[10].appl 	NumberofON 	0.21621621621622
scalar RSUExampleScenario.node[10].appl 	NumberofFN 	0.75675675675676
scalar RSUExampleScenario.node[10].veinsmobility 	startTime 	24.2
scalar RSUExampleScenario.node[10].veinsmobility 	totalTime 	425.8
scalar RSUExampleScenario.node[10].veinsmobility 	stopTime 	450
scalar RSUExampleScenario.node[10].veinsmobility 	minSpeed 	0
scalar RSUExampleScenario.node[10].veinsmobility 	maxSpeed 	13.999890301956
scalar RSUExampleScenario.node[10].veinsmobility 	totalDistance 	2788.2074769824
scalar RSUExampleScenario.node[10].veinsmobility 	totalCO2Emission 	756.59046231965
scalar RSUExampleScenario.node[11].appl 	meanClusterNodes 	4
scalar RSUExampleScenario.node[11].appl 	meanClusterHeadUtility 	19.148616919566
scalar RSUExampleScenario.node[11].appl 	NumberofCH 	0.054054054054054
scalar RSUExampleScenario.node[11].appl 	NumberofON 	0.2972972972973
scalar RSUExampleScenario.node[11].appl 	NumberofFN 	0.64864864864865
scalar RSUExampleScenario.node[11].veinsmobility 	startTime 	26.6
scalar RSUExampleScenario.node[11].veinsmobility 	totalTime 	423.4
scalar RSUExampleScenario.node[11].veinsmobility 	stopTime 	450
scalar RSUExampleScenario.node[11].veinsmobility 	minSpeed 	0
scalar RSUExampleScenario.node[11].veinsmobility 	maxSpeed 	13.999989698322
scalar RSUExampleScenario.node[11].veinsmobility 	totalDistance 	2757.4948208383
scalar RSUExampleScenario.node[11].veinsmobility 	totalCO2Emission 	752.66488217709
scalar RSUExampleScenario.node[12].appl 	meanClusterNodes 	0
scalar RSUExampleScenario.node[12].appl 	meanClusterHeadUtility 	0
scalar RSUExampleScenario.node[12].appl 	NumberofCH 	0
scalar RSUExampleScenario.node[12].appl 	NumberofON 	0.51351351351351
scalar RSUExampleScenario.node[12].appl 	NumberofFN 	0.48648648648649
scalar RSUExampleScenario.node[12].veinsmobility 	startTime 	29
scalar RSUExampleScenario.node[12].veinsmobility 	totalTime 	421
scalar RSUExampleScenario.node[12].veinsmobility 	stopTime 	450
scalar RSUExampleScenario.node[12].veinsmobility 	minSpeed 	0
scalar RSUExampleScenario.node[12].veinsmobility 	maxSpeed 	13.99990862241
scalar RSUExampleScenario.node[12].veinsmobility 	totalDistance 	2718.2855938263
scalar RSUExampleScenario.node[12].veinsmobility 	totalCO2Emission 	749.44788801662
scalar RSUExampleScenario.node[13].appl 	meanClusterNodes 	6.5
scalar RSUExampleScenario.node[13].appl 	meanClusterHeadUtility 	17.860830402222
scalar RSUExampleScenario.node[13].appl 	NumberofCH 	0.054054054054054
scalar RSUExampleScenario.node[13].appl 	NumberofON 	0.27027027027027
scalar RSUExampleScenario.node[13].appl 	NumberofFN 	0.67567567567568
scalar RSUExampleScenario.node[13].veinsmobility 	startTime 	31.4
scalar RSUExampleScenario.node[13].veinsmobility 	totalTime 	418.6
scalar RSUExampleScenario.node[13].veinsmobility 	stopTime 	450
scalar RSUExampleScenario.node[13].veinsmobility 	minSpeed 	0
scalar RSUExampleScenario.node[13].veinsmobility 	maxSpeed 	13.999595898506
scalar RSUExampleScenario.node[13].veinsmobility 	totalDistance 	2683.2370109056
scalar RSUExampleScenario.node[13].veinsmobility 	totalCO2Emission 	743.88386639007
scalar RSUExampleScenario.node[14].appl 	meanClusterNodes 	3
scalar RSUExampleScenario.node[14].appl 	meanClusterHeadUtility 	18.806598730777
scalar RSUExampleScenario.node[14].appl 	NumberofCH 	0.054054054054054
scalar RSUExampleScenario.node[14].appl 	NumberofON 	0.43243243243243
scalar RSUExampleScenario.node[14].appl 	NumberofFN 	0.51351351351351
scalar RSUExampleScenario.node[14].veinsmobility 	startTime 	33.8
scalar RSUExampleScenario.node[14].veinsmobility 	totalTime 	416.2
scalar RSUExampleScenario.node[14].veinsmobility 	stopTime 	450
scalar RSUExampleScenario.node[14].veinsmobility 	minSpeed 	0
scalar RSUExampleScenario.node[14].veinsmobility 	maxSpeed 	13.999946150018
scalar RSUExampleScenario.node[14].veinsmobility 	totalDistance 	2648.5260725711
scalar RSUExampleScenario.node[14].veinsmobility 	totalCO2Emission 	735.54450382828
scalar RSUExampleScenario.node[15].appl 	meanClusterNodes 	3
scalar RSUExampleScenario.node[15].appl 	meanClusterHeadUtility 	16.306619497031
scalar RSUExampleScenario.node[15].appl 	NumberofCH 	0.054054054054054
scalar RSUExampleScenario.node[15].appl 	NumberofON 	0.48648648648649
scalar RSUExampleScenario.node[15].appl 	NumberofFN 	0.45945945945946
scalar RSUExampleScenario.node[15].veinsmobility 	startTime 	36.2
scalar RSUExampleScenario.node[15].veinsmobility 	totalTime 	413.8
scalar RSUExampleScenario.node[15].veinsmobility 	stopTime 	450
scalar RSUExampleScenario.node[15].veinsmobility 	minSpeed 	0
scalar RSUExampleScenario.node[15].veinsmobility 	maxSpeed 	13.999836379271
scalar RSUExampleScenario.node[15].veinsmobility 	totalDistance 	2618.9628203268
scalar RSUExampleScenario.node[15].veinsmobility 	totalCO2Emission 	729.55609876331
scalar RSUExampleScenario.node[16].appl 	meanClusterNodes 	0
scalar RSUExampleScenario.node[16].appl 	meanClusterHeadUtility 	0
scalar RSUExampleScenario.node[16].appl 	NumberofCH 	0
scalar RSUExampleScenario.node[16].appl 	NumberofON 	0.48648648648649
scalar RSUExampleScenario.node[16].appl 	NumberofFN 	0.51351351351351
scalar RSUExampleScenario.node[16].veinsmobility 	startTime 	38.6
scalar RSUExampleScenario.node[16].veinsmobility 	totalTime 	411.4
scalar RSUExampleScenario.node[16].veinsmobility 	stopTime 	450
scalar RSUExampleScenario.node[16].veinsmobility 	minSpeed 	0
scalar RSUExampleScenario.node[16].veinsmobility 	maxSpeed 	13.999980088812
scalar RSUExampleScenario.node[16].veinsmobility 	totalDistance 	2578.6919722472
scalar RSUExampleScenario.node[16].veinsmobility 	totalCO2Emission 	719.08011961975
scalar RSUExampleScenario.node[17].appl 	meanClusterNodes 	10.5
scalar RSUExampleScenario.node[17].appl 	meanClusterHeadUtility 	17.827677882661
scalar RSUExampleScenario.node[17].appl 	NumberofCH 	0.054054054054054
scalar RSUExampleScenario.node[17].appl 	NumberofON 	0.21621621621622
scalar RSUExampleScenario.node[17].appl 	NumberofFN 	0.72972972972973
scalar RSUExampleScenario.node[17].veinsmobility 	startTime 	41
scalar RSUExampleScenario.node[17].veinsmobility 	totalTime 	409
scalar RSUExampleScenario.node[17].veinsmobility 	stopTime 	450
scalar RSUExampleScenario.node[17].veinsmobility 	minSpeed 	0
scalar RSUExampleScenario.node[17].veinsmobility 	maxSpeed 	13.999988277936
scalar RSUExampleScenario.node[17].veinsmobility 	totalDistance 	2542.1389314763
scalar RSUExampleScenario.node[17].veinsmobility 	totalCO2Emission 	721.48898507751
scalar RSUExampleScenario.node[18].appl 	meanClusterNodes 	8
scalar RSUExampleScenario.node[18].appl 	meanClusterHeadUtility 	16.0968548423
scalar RSUExampleScenario.node[18].appl 	NumberofCH 	0.054054054054054
scalar RSUExampleScenario.node[18].appl 	NumberofON 	0.35135135135135
scalar RSUExampleScenario.node[18].appl 	NumberofFN 	0.59459459459459
scalar RSUExampleScenario.node[18].veinsmobility 	startTime 	43.4
scalar RSUExampleScenario.node[18].veinsmobility 	totalTime 	406.6
scalar RSUExampleScenario.node[18].veinsmobility 	stopTime 	450
scalar RSUExampleScenario.node[18].veinsmobility 	minSpeed 	0
scalar RSUExampleScenario.node[18].veinsmobility 	maxSpeed 	13.999988124538
scalar RSUExampleScenario.node[18].veinsmobility 	totalDistance 	2505.739034277
scalar RSUExampleScenario.node[18].veinsmobility 	totalCO2Emission 	710.30842962393
scalar RSUExampleScenario.node[19].appl 	meanClusterNodes 	1
scalar RSUExampleScenario.node[19].appl 	meanClusterHeadUtility 	16.678049397093
scalar RSUExampleScenario.node[19].appl 	NumberofCH 	0.054054054054054
scalar RSUExampleScenario.node[19].appl 	NumberofON 	0.45945945945946
scalar RSUExampleScenario.node[19].appl 	NumberofFN 	0.48648648648649
scalar RSUExampleScenario.node[19].veinsmobility 	startTime 	45.8
scalar RSUExampleScenario.node[19].veinsmobility 	totalTime 	404.2
scalar RSUExampleScenario.node[19].veinsmobility 	stopTime 	450
scalar RSUExampleScenario.node[19].veinsmobility 	minSpeed 	0
scalar RSUExampleScenario.node[19].veinsmobility 	maxSpeed 	13.9999516044
scalar RSUExampleScenario.node[19].veinsmobility 	totalDistance 	2476.6499997572
scalar RSUExampleScenario.node[19].veinsmobility 	totalCO2Emission 	710.25424494513
scalar RSUExampleScenario.node[2].appl 	meanClusterNodes 	4.5
scalar RSUExampleScenario.node[2].appl 	meanClusterHeadUtility 	19.108389762423
scalar RSUExampleScenario.node[2].appl 	NumberofCH 	0.054054054054054
scalar RSUExampleScenario.node[2].appl 	NumberofON 	0.16216216216216
scalar RSUExampleScenario.node[2].appl 	NumberofFN 	0.78378378378378
scalar RSUExampleScenario.node[2].veinsmobility 	startTime 	4.9
scalar RSUExampleScenario.node[2].veinsmobility 	totalTime 	445.1
scalar RSUExampleScenario.node[2].veinsmobility 	stopTime 	450
scalar RSUExampleScenario.node[2].veinsmobility 	minSpeed 	0
scalar RSUExampleScenario.node[2].veinsmobility 	maxSpeed 	13.999938091501
scalar RSUExampleScenario.node[2].veinsmobility 	totalDistance 	3034.5193144582
scalar RSUExampleScenario.node[2].veinsmobility 	totalCO2Emission 	821.80493926791
scalar RSUExampleScenario.node[20].appl 	meanClusterNodes 	6.5
scalar RSUExampleScenario.node[20].appl 	meanClusterHeadUtility 	17.395016528306
scalar RSUExampleScenario.node[20].appl 	NumberofCH 	0.054054054054054
scalar RSUExampleScenario.node[20].appl 	NumberofON 	0.37837837837838
scalar RSUExampleScenario.node[20].appl 	NumberofFN 	0.56756756756757
scalar RSUExampleScenario.node[20].veinsmobility 	startTime 	48.3
scalar RSUExampleScenario.node[20].veinsmobility 	totalTime 	401.7
scalar RSUExampleScenario.node[20].veinsmobility 	stopTime 	450
scalar RSUExampleScenario.node[20].veinsmobility 	minSpeed 	0
scalar RSUExampleScenario.node[20].veinsmobility 	maxSpeed 	13.999989174565
scalar RSUExampleScenario.node[20].veinsmobility 	totalDistance 	2437.1552536776
scalar RSUExampleScenario.node[20].veinsmobility 	totalCO2Emission 	699.18525738446
scalar RSUExampleScenario.node[21].appl 	meanClusterNodes 	1
scalar RSUExampleScenario.node[21].appl 	meanClusterHeadUtility 	15.335924857121
scalar RSUExampleScenario.node[21].appl 	NumberofCH 	0.054054054054054
scalar RSUExampleScenario.node[21].appl 	NumberofON 	0.27027027027027
scalar RSUExampleScenario.node[21].appl 	NumberofFN 	0.67567567567568
scalar RSUExampleScenario.node[21].veinsmobility 	startTime 	50.7
scalar RSUExampleScenario.node[21].veinsmobility 	totalTime 	399.3
scalar RSUExampleScenario.node[21].veinsmobility 	stopTime 	450
scalar RSUExampleScenario.node[21].veinsmobility 	minSpeed 	0
scalar RSUExampleScenario.node[21].veinsmobility 	maxSpeed 	13.999990395727
scalar RSUExampleScenario.node[21].veinsmobility 	totalDistance 	2407.0774784978
scalar RSUExampleScenario.node[21].veinsmobility 	totalCO2Emission 	694.30380699294
scalar RSUExampleScenario.node[22].appl 	meanClusterNodes 	13.5
scalar RSUExampleScenario.node[22].appl 	meanClusterHeadUtility 	17.327920403845
scalar RSUExampleScenario.node[22].appl 	NumberofCH 	0.054054054054054
scalar RSUExampleScenario.node[22].appl 	NumberofON 	0.16216216216216
scalar RSUExampleScenario.node[22].appl 	NumberofFN 	0.78378378378378
scalar RSUExampleScenario.node[22].veinsmobility 	startTime 	53.1
scalar RSUExampleScenario.node[22].veinsmobility 	totalTime 	396.9
scalar RSUExampleScenario.node[22].veinsmobility 	stopTime 	450
scalar RSUExampleScenario.node[22].veinsmobility 	minSpeed 	0
scalar RSUExampleScenario.node[22].veinsmobility 	maxSpeed 	13.99990420047
scalar RSUExampleScenario.node[22].veinsmobility 	totalDistance 	2371.2140150274
scalar RSUExampleScenario.node[22].veinsmobility 	totalCO2Emission 	688.92987923381
scalar RSUExampleScenario.node[23].appl 	meanClusterNodes 	0
scalar RSUExampleScenario.node[23].appl 	meanClusterHeadUtility 	0
scalar RSUExampleScenario.node[23].appl 	NumberofCH 	0
scalar RSUExampleScenario.node[23].appl 	NumberofON 	0.40540540540541
scalar RSUExampleScenario.node[23].appl 	NumberofFN 	0.59459459459459
scalar RSUExampleScenario.node[23].veinsmobility 	startTime 	55.5
scalar RSUExampleScenario.node[23].veinsmobility 	totalTime 	394.5
scalar RSUExampleScenario.node[23].veinsmobility 	stopTime 	450
scalar RSUExampleScenario.node[23].veinsmobility 	minSpeed 	0
scalar RSUExampleScenario.node[23].veinsmobility 	maxSpeed 	13.99999692898
scalar RSUExampleScenario.node[23].veinsmobility 	totalDistance 	2341.9825264244
scalar RSUExampleScenario.node[23].veinsmobility 	totalCO2Emission 	683.92435160249
scalar RSUExampleScenario.node[24].appl 	meanClusterNodes 	5.5
scalar RSUExampleScenario.node[24].appl 	meanClusterHeadUtility 	15.901084449559
scalar RSUExampleScenario.node[24].appl 	NumberofCH 	0.054054054054054
scalar RSUExampleScenario.node[24].appl 	NumberofON 	0.40540540540541
scalar RSUExampleScenario.node[24].appl 	NumberofFN 	0.54054054054054
scalar RSUExampleScenario.node[24].veinsmobility 	startTime 	57.9
scalar RSUExampleScenario.node[24].veinsmobility 	totalTime 	392.1
scalar RSUExampleScenario.node[24].veinsmobility 	stopTime 	450
scalar RSUExampleScenario.node[24].veinsmobility 	minSpeed 	0
scalar RSUExampleScenario.node[24].veinsmobility 	maxSpeed 	13.999905804703
scalar RSUExampleScenario.node[24].veinsmobility 	totalDistance 	2304.0080389061
scalar RSUExampleScenario.node[24].veinsmobility 	totalCO2Emission 	678.10299594632
scalar RSUExampleScenario.node[25].appl 	meanClusterNodes 	0
scalar RSUExampleScenario.node[25].appl 	meanClusterHeadUtility 	0
scalar RSUExampleScenario.node[25].appl 	NumberofCH 	0
scalar RSUExampleScenario.node[25].appl 	NumberofON 	0.32432432432432
scalar RSUExampleScenario.node[25].appl 	NumberofFN 	0.67567567567568
scalar RSUExampleScenario.node[25].veinsmobility 	startTime 	60.3
scalar RSUExampleScenario.node[25].veinsmobility 	totalTime 	389.7
scalar RSUExampleScenario.node[25].veinsmobility 	stopTime 	450
scalar RSUExampleScenario.node[25].veinsmobility 	minSpeed 	0
scalar RSUExampleScenario.node[25].veinsmobility 	maxSpeed 	13.999894248871
scalar RSUExampleScenario.node[25].veinsmobility 	totalDistance 	2273.0669135037
scalar RSUExampleScenario.node[25].veinsmobility 	totalCO2Emission 	670.50937002398
scalar RSUExampleScenario.node[26].appl 	meanClusterNodes 	0
scalar RSUExampleScenario.node[26].appl 	meanClusterHeadUtility 	0
scalar RSUExampleScenario.node[26].appl 	NumberofCH 	0
scalar RSUExampleScenario.node[26].appl 	NumberofON 	0.45945945945946
scalar RSUExampleScenario.node[26].appl 	NumberofFN 	0.54054054054054
scalar RSUExampleScenario.node[26].veinsmobility 	startTime 	62.7
scalar RSUExampleScenario.node[26].veinsmobility 	totalTime 	387.3
scalar RSUExampleScenario.node[26].veinsmobility 	stopTime 	450
scalar RSUExampleScenario.node[26].veinsmobility 	minSpeed 	0
scalar RSUExampleScenario.node[26].veinsmobility 	maxSpeed 	13.999968415904
scalar RSUExampleScenario.node[26].veinsmobility 	totalDistance 	2235.8135897517
scalar RSUExampleScenario.node[26].veinsmobility 	totalCO2Emission 	667.02407245875
scalar RSUExampleScenario.node[27].appl 	meanClusterNodes 	10.5
scalar RSUExampleScenario.node[27].appl 	meanClusterHeadUtility 	17.549170100292
scalar RSUExampleScenario.node[27].appl 	NumberofCH 	0.054054054054054
scalar RSUExampleScenario.node[27].appl 	NumberofON 	0.2972972972973
scalar RSUExampleScenario.node[27].appl 	NumberofFN 	0.64864864864865
scalar RSUExampleScenario.node[27].veinsmobility 	startTime 	65.1
scalar RSUExampleScenario.node[27].veinsmobility 	totalTime 	384.9
scalar RSUExampleScenario.node[27].veinsmobility 	stopTime 	450
scalar RSUExampleScenario.node[27].veinsmobility 	minSpeed 	0
scalar RSUExampleScenario.node[27].veinsmobility 	maxSpeed 	13.999990879046
scalar RSUExampleScenario.node[27].veinsmobility 	totalDistance 	2206.1104823377
scalar RSUExampleScenario.node[27].veinsmobility 	totalCO2Emission 	662.85319784126
scalar RSUExampleScenario.node[28].appl 	meanClusterNodes 	0
scalar RSUExampleScenario.node[28].appl 	meanClusterHeadUtility 	0
scalar RSUExampleScenario.node[28].appl 	NumberofCH 	0
scalar RSUExampleScenario.node[28].appl 	NumberofON 	0.27027027027027
scalar RSUExampleScenario.node[28].appl 	NumberofFN 	0.72972972972973
scalar RSUExampleScenario.node[28].veinsmobility 	startTime 	67.5
scalar RSUExampleScenario.node[28].veinsmobility 	totalTime 	382.5
scalar RSUExampleScenario.node[28].veinsmobility 	stopTime 	450
scalar RSUExampleScenario.node[28].veinsmobility 	minSpeed 	0
scalar RSUExampleScenario.node[28].veinsmobility 	maxSpeed 	13.999990859432
scalar RSUExampleScenario.node[28].veinsmobility 	totalDistance 	2168.0640335545
scalar RSUExampleScenario.node[28].veinsmobility 	totalCO2Emission 	654.94703394852
scalar RSUExampleScenario.node[29].appl 	meanClusterNodes 	5
scalar RSUExampleScenario.node[29].appl 	meanClusterHeadUtility 	34.892010391341
scalar RSUExampleScenario.node[29].appl 	NumberofCH 	0.027027027027027
scalar RSUExampleScenario.node[29].appl 	NumberofON 	0.43243243243243
scalar RSUExampleScenario.node[29].appl 	NumberofFN 	0.54054054054054
scalar RSUExampleScenario.node[29].veinsmobility 	startTime 	69.9
scalar RSUExampleScenario.node[29].veinsmobility 	totalTime 	380.1
scalar RSUExampleScenario.node[29].veinsmobility 	stopTime 	450
scalar RSUExampleScenario.node[29].veinsmobility 	minSpeed 	0
scalar RSUExampleScenario.node[29].veinsmobility 	maxSpeed 	13.999489940254
scalar RSUExampleScenario.node[29].veinsmobility 	totalDistance 	2138.0679888562
scalar RSUExampleScenario.node[29].veinsmobility 	totalCO2Emission 	648.90522592737
scalar RSUExampleScenario.node[3].appl 	meanClusterNodes 	4.5
scalar RSUExampleScenario.node[3].appl 	meanClusterHeadUtility 	15.887259265586
scalar RSUExampleScenario.node[3].appl 	NumberofCH 	0.054054054054054
scalar RSUExampleScenario.node[3].appl 	NumberofON 	0.32432432432432
scalar RSUExampleScenario.node[3].appl 	NumberofFN 	0.62162162162162
scalar RSUExampleScenario.node[3].veinsmobility 	startTime 	7.3
scalar RSUExampleScenario.node[3].veinsmobility 	totalTime 	442.7
scalar RSUExampleScenario.node[3].veinsmobility 	stopTime 	450
scalar RSUExampleScenario.node[3].veinsmobility 	minSpeed 	0
scalar RSUExampleScenario.node[3].veinsmobility 	maxSpeed 	13.999998699627
scalar RSUExampleScenario.node[3].veinsmobility 	totalDistance 	2995.6808688843
scalar RSUExampleScenario.node[3].veinsmobility 	totalCO2Emission 	813.47890703945
scalar RSUExampleScenario.node[30].appl 	meanClusterNodes 	7.5
scalar RSUExampleScenario.node[30].appl 	meanClusterHeadUtility 	16.876932110245
scalar RSUExampleScenario.node[30].appl 	NumberofCH 	0.054054054054054
scalar RSUExampleScenario.node[30].appl 	NumberofON 	0.48648648648649
scalar RSUExampleScenario.node[30].appl 	NumberofFN 	0.45945945945946
scalar RSUExampleScenario.node[30].veinsmobility 	startTime 	72.4
scalar RSUExampleScenario.node[30].veinsmobility 	totalTime 	377.6
scalar RSUExampleScenario.node[30].veinsmobility 	stopTime 	450
scalar RSUExampleScenario.node[30].veinsmobility 	minSpeed 	0
scalar RSUExampleScenario.node[30].veinsmobility 	maxSpeed 	13.999971378958
scalar RSUExampleScenario.node[30].veinsmobility 	totalDistance 	2100.5254942495
scalar RSUExampleScenario.node[30].veinsmobility 	totalCO2Emission 	645.08543468993
scalar RSUExampleScenario.node[31].appl 	meanClusterNodes 	11.5
scalar RSUExampleScenario.node[31].appl 	meanClusterHeadUtility 	16.961491533066
scalar RSUExampleScenario.node[31].appl 	NumberofCH 	0.054054054054054
scalar RSUExampleScenario.node[31].appl 	NumberofON 	0.16216216216216
scalar RSUExampleScenario.node[31].appl 	NumberofFN 	0.78378378378378
scalar RSUExampleScenario.node[31].veinsmobility 	startTime 	74.8
scalar RSUExampleScenario.node[31].veinsmobility 	totalTime 	375.2
scalar RSUExampleScenario.node[31].veinsmobility 	stopTime 	450
scalar RSUExampleScenario.node[31].veinsmobility 	minSpeed 	0
scalar RSUExampleScenario.node[31].veinsmobility 	maxSpeed 	13.999990192144
scalar RSUExampleScenario.node[31].veinsmobility 	totalDistance 	2068.5231457675
scalar RSUExampleScenario.node[31].veinsmobility 	totalCO2Emission 	638.28988486063
scalar RSUExampleScenario.node[32].appl 	meanClusterNodes 	5
scalar RSUExampleScenario.node[32].appl 	meanClusterHeadUtility 	20.725746249469
scalar RSUExampleScenario.node[32].appl 	NumberofCH 	0.054054054054054
scalar RSUExampleScenario.node[32].appl 	NumberofON 	0.59459459459459
scalar RSUExampleScenario.node[32].appl 	NumberofFN 	0.35135135135135
scalar RSUExampleScenario.node[32].veinsmobility 	startTime 	77.2
scalar RSUExampleScenario.node[32].veinsmobility 	totalTime 	372.8
scalar RSUExampleScenario.node[32].veinsmobility 	stopTime 	450
scalar RSUExampleScenario.node[32].veinsmobility 	minSpeed 	0
scalar RSUExampleScenario.node[32].veinsmobility 	maxSpeed 	13.999811489969
scalar RSUExampleScenario.node[32].veinsmobility 	totalDistance 	2032.4496988569
scalar RSUExampleScenario.node[32].veinsmobility 	totalCO2Emission 	631.6795291963
scalar RSUExampleScenario.node[33].appl 	meanClusterNodes 	0
scalar RSUExampleScenario.node[33].appl 	meanClusterHeadUtility 	0
scalar RSUExampleScenario.node[33].appl 	NumberofCH 	0
scalar RSUExampleScenario.node[33].appl 	NumberofON 	0.62162162162162
scalar RSUExampleScenario.node[33].appl 	NumberofFN 	0.37837837837838
scalar RSUExampleScenario.node[33].veinsmobility 	startTime 	79.6
scalar RSUExampleScenario.node[33].veinsmobility 	totalTime 	370.4
scalar RSUExampleScenario.node[33].veinsmobility 	stopTime 	450
scalar RSUExampleScenario.node[33].veinsmobility 	minSpeed 	0
scalar RSUExampleScenario.node[33].veinsmobility 	maxSpeed 	13.999676469003
scalar RSUExampleScenario.node[33].veinsmobility 	totalDistance 	2000.8143748595
scalar RSUExampleScenario.node[33].veinsmobility 	totalCO2Emission 	627.26955922791
scalar RSUExampleScenario.node[34].appl 	meanClusterNodes 	0
scalar RSUExampleScenario.node[34].appl 	meanClusterHeadUtility 	0
scalar RSUExampleScenario.node[34].appl 	NumberofCH 	0
scalar RSUExampleScenario.node[34].appl 	NumberofON 	0.56756756756757
scalar RSUExampleScenario.node[34].appl 	NumberofFN 	0.43243243243243
scalar RSUExampleScenario.node[34].veinsmobility 	startTime 	82
scalar RSUExampleScenario.node[34].veinsmobility 	totalTime 	368
scalar RSUExampleScenario.node[34].veinsmobility 	stopTime 	450
scalar RSUExampleScenario.node[34].veinsmobility 	minSpeed 	0
scalar RSUExampleScenario.node[34].veinsmobility 	maxSpeed 	13.999383857811
scalar RSUExampleScenario.node[34].veinsmobility 	totalDistance 	1965.8458183734
scalar RSUExampleScenario.node[34].veinsmobility 	totalCO2Emission 	621.21326668342
scalar RSUExampleScenario.node[35].appl 	meanClusterNodes 	6
scalar RSUExampleScenario.node[35].appl 	meanClusterHeadUtility 	18.824738835252
scalar RSUExampleScenario.node[35].appl 	NumberofCH 	0.054054054054054
scalar RSUExampleScenario.node[35].appl 	NumberofON 	0.37837837837838
scalar RSUExampleScenario.node[35].appl 	NumberofFN 	0.56756756756757
scalar RSUExampleScenario.node[35].veinsmobility 	startTime 	84.4
scalar RSUExampleScenario.node[35].veinsmobility 	totalTime 	365.6
scalar RSUExampleScenario.node[35].veinsmobility 	stopTime 	450
scalar RSUExampleScenario.node[35].veinsmobility 	minSpeed 	0
scalar RSUExampleScenario.node[35].veinsmobility 	maxSpeed 	13.999999401905
scalar RSUExampleScenario.node[35].veinsmobility 	totalDistance 	1933.1021304074
scalar RSUExampleScenario.node[35].veinsmobility 	totalCO2Emission 	613.87571408951
scalar RSUExampleScenario.node[36].appl 	meanClusterNodes 	0
scalar RSUExampleScenario.node[36].appl 	meanClusterHeadUtility 	0
scalar RSUExampleScenario.node[36].appl 	NumberofCH 	0
scalar RSUExampleScenario.node[36].appl 	NumberofON 	0.48648648648649
scalar RSUExampleScenario.node[36].appl 	NumberofFN 	0.51351351351351
scalar RSUExampleScenario.node[36].veinsmobility 	startTime 	86.8
scalar RSUExampleScenario.node[36].veinsmobility 	totalTime 	363.2
scalar RSUExampleScenario.node[36].veinsmobility 	stopTime 	450
scalar RSUExampleScenario.node[36].veinsmobility 	minSpeed 	0
scalar RSUExampleScenario.node[36].veinsmobility 	maxSpeed 	13.999990361948
scalar RSUExampleScenario.node[36].veinsmobility 	totalDistance 	1899.5803272082
scalar RSUExampleScenario.node[36].veinsmobility 	totalCO2Emission 	609.13904731635
scalar RSUExampleScenario.node[37].appl 	meanClusterNodes 	12
scalar RSUExampleScenario.node[37].appl 	meanClusterHeadUtility 	16.396873134711
scalar RSUExampleScenario.node[37].appl 	NumberofCH 	0.054054054054054
scalar RSUExampleScenario.node[37].appl 	NumberofON 	0.43243243243243
scalar RSUExampleScenario.node[37].appl 	NumberofFN 	0.51351351351351
scalar RSUExampleScenario.node[37].veinsmobility 	startTime 	89.2
scalar RSUExampleScenario.node[37].veinsmobility 	totalTime 	360.8
scalar RSUExampleScenario.node[37].veinsmobility 	stopTime 	450
scalar RSUExampleScenario.node[37].veinsmobility 	minSpeed 	0
scalar RSUExampleScenario.node[37].veinsmobility 	maxSpeed 	13.999869230234
scalar RSUExampleScenario.node[37].veinsmobility 	totalDistance 	1865.4191853759
scalar RSUExampleScenario.node[37].veinsmobility 	totalCO2Emission 	603.54713861514
scalar RSUExampleScenario.node[38].appl 	meanClusterNodes 	0
scalar RSUExampleScenario.node[38].appl 	meanClusterHeadUtility 	0
scalar RSUExampleScenario.node[38].appl 	NumberofCH 	0
scalar RSUExampleScenario.node[38].appl 	NumberofON 	0.37837837837838
scalar RSUExampleScenario.node[38].appl 	NumberofFN 	0.62162162162162
scalar RSUExampleScenario.node[38].veinsmobility 	startTime 	91.6
scalar RSUExampleScenario.node[38].veinsmobility 	totalTime 	358.4
scalar RSUExampleScenario.node[38].veinsmobility 	stopTime 	450
scalar RSUExampleScenario.node[38].veinsmobility 	minSpeed 	0
scalar RSUExampleScenario.node[38].veinsmobility 	maxSpeed 	13.999749741526
scalar RSUExampleScenario.node[38].veinsmobility 	totalDistance 	1833.0640788788
scalar RSUExampleScenario.node[38].veinsmobility 	totalCO2Emission 	599.0441947906
scalar RSUExampleScenario.node[39].appl 	meanClusterNodes 	12.5
scalar RSUExampleScenario.node[39].appl 	meanClusterHeadUtility 	18.018439318197
scalar RSUExampleScenario.node[39].appl 	NumberofCH 	0.054054054054054
scalar RSUExampleScenario.node[39].appl 	NumberofON 	0.27027027027027
scalar RSUExampleScenario.node[39].appl 	NumberofFN 	0.67567567567568
scalar RSUExampleScenario.node[39].veinsmobility 	startTime 	94
scalar RSUExampleScenario.node[39].veinsmobility 	totalTime 	356
scalar RSUExampleScenario.node[39].veinsmobility 	stopTime 	450
scalar RSUExampleScenario.node[39].veinsmobility 	minSpeed 	0
scalar RSUExampleScenario.node[39].veinsmobility 	maxSpeed 	13.999998137369
scalar RSUExampleScenario.node[39].veinsmobility 	totalDistance 	1799.1568567477
scalar RSUExampleScenario.node[39].veinsmobility 	totalCO2Emission 	594.19588716197
scalar RSUExampleScenario.node[4].appl 	meanClusterNodes 	5
scalar RSUExampleScenario.node[4].appl 	meanClusterHeadUtility 	18.785651883371
scalar RSUExampleScenario.node[4].appl 	NumberofCH 	0.054054054054054
scalar RSUExampleScenario.node[4].appl 	NumberofON 	0.21621621621622
scalar RSUExampleScenario.node[4].appl 	NumberofFN 	0.72972972972973
scalar RSUExampleScenario.node[4].veinsmobility 	startTime 	9.7
scalar RSUExampleScenario.node[4].veinsmobility 	totalTime 	440.3
scalar RSUExampleScenario.node[4].veinsmobility 	stopTime 	450
scalar RSUExampleScenario.node[4].veinsmobility 	minSpeed 	0
scalar RSUExampleScenario.node[4].veinsmobility 	maxSpeed 	13.999959577138
scalar RSUExampleScenario.node[4].veinsmobility 	totalDistance 	2944.1324274755
scalar RSUExampleScenario.node[4].veinsmobility 	totalCO2Emission 	799.1438439664
scalar RSUExampleScenario.node[40].appl 	meanClusterNodes 	7
scalar RSUExampleScenario.node[40].appl 	meanClusterHeadUtility 	17.161783146827
scalar RSUExampleScenario.node[40].appl 	NumberofCH 	0.054054054054054
scalar RSUExampleScenario.node[40].appl 	NumberofON 	0.43243243243243
scalar RSUExampleScenario.node[40].appl 	NumberofFN 	0.51351351351351
scalar RSUExampleScenario.node[40].veinsmobility 	startTime 	96.5
scalar RSUExampleScenario.node[40].veinsmobility 	totalTime 	353.5
scalar RSUExampleScenario.node[40].veinsmobility 	stopTime 	450
scalar RSUExampleScenario.node[40].veinsmobility 	minSpeed 	0
scalar RSUExampleScenario.node[40].veinsmobility 	maxSpeed 	13.999977981192
scalar RSUExampleScenario.node[40].veinsmobility 	totalDistance 	1765.6482915733
scalar RSUExampleScenario.node[40].veinsmobility 	totalCO2Emission 	584.22355305111
scalar RSUExampleScenario.node[41].appl 	meanClusterNodes 	12.5
scalar RSUExampleScenario.node[41].appl 	meanClusterHeadUtility 	16.619463663124
scalar RSUExampleScenario.node[41].appl 	NumberofCH 	0.054054054054054
scalar RSUExampleScenario.node[41].appl 	NumberofON 	0.37837837837838
scalar RSUExampleScenario.node[41].appl 	NumberofFN 	0.56756756756757
scalar RSUExampleScenario.node[41].veinsmobility 	startTime 	98.9
scalar RSUExampleScenario.node[41].veinsmobility 	totalTime 	351.1
scalar RSUExampleScenario.node[41].veinsmobility 	stopTime 	450
scalar RSUExampleScenario.node[41].veinsmobility 	minSpeed 	0
scalar RSUExampleScenario.node[41].veinsmobility 	maxSpeed 	13.999922561634
scalar RSUExampleScenario.node[41].veinsmobility 	totalDistance 	1732.3752456474
scalar RSUExampleScenario.node[41].veinsmobility 	totalCO2Emission 	579.93939915474
scalar RSUExampleScenario.node[42].appl 	meanClusterNodes 	0
scalar RSUExampleScenario.node[42].appl 	meanClusterHeadUtility 	0
scalar RSUExampleScenario.node[42].appl 	NumberofCH 	0
scalar RSUExampleScenario.node[42].appl 	NumberofON 	0.56756756756757
scalar RSUExampleScenario.node[42].appl 	NumberofFN 	0.43243243243243
scalar RSUExampleScenario.node[42].veinsmobility 	startTime 	101.3
scalar RSUExampleScenario.node[42].veinsmobility 	totalTime 	348.7
scalar RSUExampleScenario.node[42].veinsmobility 	stopTime 	450
scalar RSUExampleScenario.node[42].veinsmobility 	minSpeed 	0
scalar RSUExampleScenario.node[42].veinsmobility 	maxSpeed 	13.999968466088
scalar RSUExampleScenario.node[42].veinsmobility 	totalDistance 	1697.4030520516
scalar RSUExampleScenario.node[42].veinsmobility 	totalCO2Emission 	577.07303508559
scalar RSUExampleScenario.node[43].appl 	meanClusterNodes 	9
scalar RSUExampleScenario.node[43].appl 	meanClusterHeadUtility 	11.455479215992
scalar RSUExampleScenario.node[43].appl 	NumberofCH 	0.081081081081081
scalar RSUExampleScenario.node[43].appl 	NumberofON 	0.43243243243243
scalar RSUExampleScenario.node[43].appl 	NumberofFN 	0.48648648648649
scalar RSUExampleScenario.node[43].veinsmobility 	startTime 	103.7
scalar RSUExampleScenario.node[43].veinsmobility 	totalTime 	346.3
scalar RSUExampleScenario.node[43].veinsmobility 	stopTime 	450
scalar RSUExampleScenario.node[43].veinsmobility 	minSpeed 	0
scalar RSUExampleScenario.node[43].veinsmobility 	maxSpeed 	13.999798754775
scalar RSUExampleScenario.node[43].veinsmobility 	totalDistance 	1662.3199775587
scalar RSUExampleScenario.node[43].veinsmobility 	totalCO2Emission 	568.13434088794
scalar RSUExampleScenario.node[44].appl 	meanClusterNodes 	3.5
scalar RSUExampleScenario.node[44].appl 	meanClusterHeadUtility 	16.404081216301
scalar RSUExampleScenario.node[44].appl 	NumberofCH 	0.054054054054054
scalar RSUExampleScenario.node[44].appl 	NumberofON 	0.54054054054054
scalar RSUExampleScenario.node[44].appl 	NumberofFN 	0.40540540540541
scalar RSUExampleScenario.node[44].veinsmobility 	startTime 	106.1
scalar RSUExampleScenario.node[44].veinsmobility 	totalTime 	343.9
scalar RSUExampleScenario.node[44].veinsmobility 	stopTime 	450
scalar RSUExampleScenario.node[44].veinsmobility 	minSpeed 	0
scalar RSUExampleScenario.node[44].veinsmobility 	maxSpeed 	13.999907628077
scalar RSUExampleScenario.node[44].veinsmobility 	totalDistance 	1631.3537427023
scalar RSUExampleScenario.node[44].veinsmobility 	totalCO2Emission 	566.79696411004
scalar RSUExampleScenario.node[45].appl 	meanClusterNodes 	12
scalar RSUExampleScenario.node[45].appl 	meanClusterHeadUtility 	17.637972116175
scalar RSUExampleScenario.node[45].appl 	NumberofCH 	0.054054054054054
scalar RSUExampleScenario.node[45].appl 	NumberofON 	0.2972972972973
scalar RSUExampleScenario.node[45].appl 	NumberofFN 	0.64864864864865
scalar RSUExampleScenario.node[45].veinsmobility 	startTime 	108.5
scalar RSUExampleScenario.node[45].veinsmobility 	totalTime 	341.5
scalar RSUExampleScenario.node[45].veinsmobility 	stopTime 	450
scalar RSUExampleScenario.node[45].veinsmobility 	minSpeed 	0
scalar RSUExampleScenario.node[45].veinsmobility 	maxSpeed 	13.999970398003
scalar RSUExampleScenario.node[45].veinsmobility 	totalDistance 	1596.5537404029
scalar RSUExampleScenario.node[45].veinsmobility 	totalCO2Emission 	556.46672936854
scalar RSUExampleScenario.node[46].appl 	meanClusterNodes 	0
scalar RSUExampleScenario.node[46].appl 	meanClusterHeadUtility 	0
scalar RSUExampleScenario.node[46].appl 	NumberofCH 	0
scalar RSUExampleScenario.node[46].appl 	NumberofON 	0.43243243243243
scalar RSUExampleScenario.node[46].appl 	NumberofFN 	0.56756756756757
scalar RSUExampleScenario.node[46].veinsmobility 	startTime 	110.9
scalar RSUExampleScenario.node[46].veinsmobility 	totalTime 	339.1
scalar RSUExampleScenario.node[46].veinsmobility 	stopTime 	450
scalar RSUExampleScenario.node[46].veinsmobility 	minSpeed 	0
scalar RSUExampleScenario.node[46].veinsmobility 	maxSpeed 	13.999832905536
scalar RSUExampleScenario.node[46].veinsmobility 	totalDistance 	1564.6095486479
scalar RSUExampleScenario.node[46].veinsmobility 	totalCO2Emission 	552.32160644889
scalar RSUExampleScenario.node[47].appl 	meanClusterNodes 	0
scalar RSUExampleScenario.node[47].appl 	meanClusterHeadUtility 	0
scalar RSUExampleScenario.node[47].appl 	NumberofCH 	0
scalar RSUExampleScenario.node[47].appl 	NumberofON 	0.56756756756757
scalar RSUExampleScenario.node[47].appl 	NumberofFN 	0.43243243243243
scalar RSUExampleScenario.node[47].veinsmobility 	startTime 	113.3
scalar RSUExampleScenario.node[47].veinsmobility 	totalTime 	336.7
scalar RSUExampleScenario.node[47].veinsmobility 	stopTime 	450
scalar RSUExampleScenario.node[47].veinsmobility 	minSpeed 	0
scalar RSUExampleScenario.node[47].veinsmobility 	maxSpeed 	13.999845034159
scalar RSUExampleScenario.node[47].veinsmobility 	totalDistance 	1530.6349218544
scalar RSUExampleScenario.node[47].veinsmobility 	totalCO2Emission 	547.35443642773
scalar RSUExampleScenario.node[48].appl 	meanClusterNodes 	10.5
scalar RSUExampleScenario.node[48].appl 	meanClusterHeadUtility 	17.161521861734
scalar RSUExampleScenario.node[48].appl 	NumberofCH 	0.054054054054054
scalar RSUExampleScenario.node[48].appl 	NumberofON 	0.24324324324324
scalar RSUExampleScenario.node[48].appl 	NumberofFN 	0.7027027027027
scalar RSUExampleScenario.node[48].veinsmobility 	startTime 	115.7
scalar RSUExampleScenario.node[48].veinsmobility 	totalTime 	334.3
scalar RSUExampleScenario.node[48].veinsmobility 	stopTime 	450
scalar RSUExampleScenario.node[48].veinsmobility 	minSpeed 	0
scalar RSUExampleScenario.node[48].veinsmobility 	maxSpeed 	13.999980385378
scalar RSUExampleScenario.node[48].veinsmobility 	totalDistance 	1495.5424747311
scalar RSUExampleScenario.node[48].veinsmobility 	totalCO2Emission 	541.56630540553
scalar RSUExampleScenario.node[49].appl 	meanClusterNodes 	6
scalar RSUExampleScenario.node[49].appl 	meanClusterHeadUtility 	16.879617788372
scalar RSUExampleScenario.node[49].appl 	NumberofCH 	0.054054054054054
scalar RSUExampleScenario.node[49].appl 	NumberofON 	0.32432432432432
scalar RSUExampleScenario.node[49].appl 	NumberofFN 	0.62162162162162
scalar RSUExampleScenario.node[49].veinsmobility 	startTime 	118.1
scalar RSUExampleScenario.node[49].veinsmobility 	totalTime 	331.9
scalar RSUExampleScenario.node[49].veinsmobility 	stopTime 	450
scalar RSUExampleScenario.node[49].veinsmobility 	minSpeed 	0
scalar RSUExampleScenario.node[49].veinsmobility 	maxSpeed 	13.99992593836
scalar RSUExampleScenario.node[49].veinsmobility 	totalDistance 	1461.5030323623
scalar RSUExampleScenario.node[49].veinsmobility 	totalCO2Emission 	535.31574357924
scalar RSUExampleScenario.node[5].appl 	meanClusterNodes 	2
scalar RSUExampleScenario.node[5].appl 	meanClusterHeadUtility 	20.214690278132
scalar RSUExampleScenario.node[5].appl 	NumberofCH 	0.054054054054054
scalar RSUExampleScenario.node[5].appl 	NumberofON 	0.081081081081081
scalar RSUExampleScenario.node[5].appl 	NumberofFN 	0.86486486486486
scalar RSUExampleScenario.node[5].veinsmobility 	startTime 	12.1
scalar RSUExampleScenario.node[5].veinsmobility 	totalTime 	437.9
scalar RSUExampleScenario.node[5].veinsmobility 	stopTime 	450
scalar RSUExampleScenario.node[5].veinsmobility 	minSpeed 	0
scalar RSUExampleScenario.node[5].veinsmobility 	maxSpeed 	13.999855611608
scalar RSUExampleScenario.node[5].veinsmobility 	totalDistance 	2917.3085442429
scalar RSUExampleScenario.node[5].veinsmobility 	totalCO2Emission 	780.1738950065
scalar RSUExampleScenario.node[50].appl 	meanClusterNodes 	4
scalar RSUExampleScenario.node[50].appl 	meanClusterHeadUtility 	17.340904953919
scalar RSUExampleScenario.node[50].appl 	NumberofCH 	0.054054054054054
scalar RSUExampleScenario.node[50].appl 	NumberofON 	0.56756756756757
scalar RSUExampleScenario.node[50].appl 	NumberofFN 	0.37837837837838
scalar RSUExampleScenario.node[50].veinsmobility 	startTime 	120.6
scalar RSUExampleScenario.node[50].veinsmobility 	totalTime 	329.4
scalar RSUExampleScenario.node[50].veinsmobility 	stopTime 	450
scalar RSUExampleScenario.node[50].veinsmobility 	minSpeed 	0
scalar RSUExampleScenario.node[50].veinsmobility 	maxSpeed 	13.999518556241
scalar RSUExampleScenario.node[50].veinsmobility 	totalDistance 	1429.0993444083
scalar RSUExampleScenario.node[50].veinsmobility 	totalCO2Emission 	529.39846953338
scalar RSUExampleScenario.node[51].appl 	meanClusterNodes 	0
scalar RSUExampleScenario.node[51].appl 	meanClusterHeadUtility 	0
scalar RSUExampleScenario.node[51].appl 	NumberofCH 	0
scalar RSUExampleScenario.node[51].appl 	NumberofON 	0.43243243243243
scalar RSUExampleScenario.node[51].appl 	NumberofFN 	0.56756756756757
scalar RSUExampleScenario.node[51].veinsmobility 	startTime 	123
scalar RSUExampleScenario.node[51].veinsmobility 	totalTime 	327
scalar RSUExampleScenario.node[51].veinsmobility 	stopTime 	450
scalar RSUExampleScenario.node[51].veinsmobility 	minSpeed 	0
scalar RSUExampleScenario.node[51].veinsmobility 	maxSpeed 	13.999433451206
scalar RSUExampleScenario.node[51].veinsmobility 	totalDistance 	1393.6132397338
scalar RSUExampleScenario.node[51].veinsmobility 	totalCO2Emission 	525.44490500971
scalar RSUExampleScenario.node[52].appl 	meanClusterNodes 	1
scalar RSUExampleScenario.node[52].appl 	meanClusterHeadUtility 	18.412063602781
scalar RSUExampleScenario.node[52].appl 	NumberofCH 	0.054054054054054
scalar RSUExampleScenario.node[52].appl 	NumberofON 	0.56756756756757
scalar RSUExampleScenario.node[52].appl 	NumberofFN 	0.37837837837838
scalar RSUExampleScenario.node[52].veinsmobility 	startTime 	125.4
scalar RSUExampleScenario.node[52].veinsmobility 	totalTime 	324.6
scalar RSUExampleScenario.node[52].veinsmobility 	stopTime 	450
scalar RSUExampleScenario.node[52].veinsmobility 	minSpeed 	0
scalar RSUExampleScenario.node[52].veinsmobility 	maxSpeed 	13.999891723704
scalar RSUExampleScenario.node[52].veinsmobility 	totalDistance 	1361.2102575052
scalar RSUExampleScenario.node[52].veinsmobility 	totalCO2Emission 	520.36392717905
scalar RSUExampleScenario.node[53].appl 	meanClusterNodes 	9.5
scalar RSUExampleScenario.node[53].appl 	meanClusterHeadUtility 	17.836545573423
scalar RSUExampleScenario.node[53].appl 	NumberofCH 	0.054054054054054
scalar RSUExampleScenario.node[53].appl 	NumberofON 	0.43243243243243
scalar RSUExampleScenario.node[53].appl 	NumberofFN 	0.51351351351351
scalar RSUExampleScenario.node[53].veinsmobility 	startTime 	127.8
scalar RSUExampleScenario.node[53].veinsmobility 	totalTime 	322.2
scalar RSUExampleScenario.node[53].veinsmobility 	stopTime 	450
scalar RSUExampleScenario.node[53].veinsmobility 	minSpeed 	0
scalar RSUExampleScenario.node[53].veinsmobility 	maxSpeed 	13.999897310145
scalar RSUExampleScenario.node[53].veinsmobility 	totalDistance 	1327.4399016193
scalar RSUExampleScenario.node[53].veinsmobility 	totalCO2Emission 	514.38288431326
scalar RSUExampleScenario.node[54].appl 	meanClusterNodes 	11
scalar RSUExampleScenario.node[54].appl 	meanClusterHeadUtility 	17.941197888255
scalar RSUExampleScenario.node[54].appl 	NumberofCH 	0.054054054054054
scalar RSUExampleScenario.node[54].appl 	NumberofON 	0.37837837837838
scalar RSUExampleScenario.node[54].appl 	NumberofFN 	0.56756756756757
scalar RSUExampleScenario.node[54].veinsmobility 	startTime 	130.2
scalar RSUExampleScenario.node[54].veinsmobility 	totalTime 	319.8
scalar RSUExampleScenario.node[54].veinsmobility 	stopTime 	450
scalar RSUExampleScenario.node[54].veinsmobility 	minSpeed 	0
scalar RSUExampleScenario.node[54].veinsmobility 	maxSpeed 	13.99990391592
scalar RSUExampleScenario.node[54].veinsmobility 	totalDistance 	1294.8203604858
scalar RSUExampleScenario.node[54].veinsmobility 	totalCO2Emission 	507.74659545261
scalar RSUExampleScenario.node[55].appl 	meanClusterNodes 	0
scalar RSUExampleScenario.node[55].appl 	meanClusterHeadUtility 	0
scalar RSUExampleScenario.node[55].appl 	NumberofCH 	0
scalar RSUExampleScenario.node[55].appl 	NumberofON 	0.56756756756757
scalar RSUExampleScenario.node[55].appl 	NumberofFN 	0.43243243243243
scalar RSUExampleScenario.node[55].veinsmobility 	startTime 	132.6
scalar RSUExampleScenario.node[55].veinsmobility 	totalTime 	317.4
scalar RSUExampleScenario.node[55].veinsmobility 	stopTime 	450
scalar RSUExampleScenario.node[55].veinsmobility 	minSpeed 	0
scalar RSUExampleScenario.node[55].veinsmobility 	maxSpeed 	13.999593742639
scalar RSUExampleScenario.node[55].veinsmobility 	totalDistance 	1260.6923315165
scalar RSUExampleScenario.node[55].veinsmobility 	totalCO2Emission 	503.27599662093
scalar RSUExampleScenario.node[56].appl 	meanClusterNodes 	4
scalar RSUExampleScenario.node[56].appl 	meanClusterHeadUtility 	18.099333944336
scalar RSUExampleScenario.node[56].appl 	NumberofCH 	0.054054054054054
scalar RSUExampleScenario.node[56].appl 	NumberofON 	0.43243243243243
scalar RSUExampleScenario.node[56].appl 	NumberofFN 	0.51351351351351
scalar RSUExampleScenario.node[56].veinsmobility 	startTime 	135
scalar RSUExampleScenario.node[56].veinsmobility 	totalTime 	315
scalar RSUExampleScenario.node[56].veinsmobility 	stopTime 	450
scalar RSUExampleScenario.node[56].veinsmobility 	minSpeed 	0
scalar RSUExampleScenario.node[56].veinsmobility 	maxSpeed 	13.99970257072
scalar RSUExampleScenario.node[56].veinsmobility 	totalDistance 	1228.9500757771
scalar RSUExampleScenario.node[56].veinsmobility 	totalCO2Emission 	495.91201420176
scalar RSUExampleScenario.node[57].appl 	meanClusterNodes 	0
scalar RSUExampleScenario.node[57].appl 	meanClusterHeadUtility 	0
scalar RSUExampleScenario.node[57].appl 	NumberofCH 	0
scalar RSUExampleScenario.node[57].appl 	NumberofON 	0.48648648648649
scalar RSUExampleScenario.node[57].appl 	NumberofFN 	0.51351351351351
scalar RSUExampleScenario.node[57].veinsmobility 	startTime 	137.4
scalar RSUExampleScenario.node[57].veinsmobility 	totalTime 	312.6
scalar RSUExampleScenario.node[57].veinsmobility 	stopTime 	450
scalar RSUExampleScenario.node[57].veinsmobility 	minSpeed 	0
scalar RSUExampleScenario.node[57].veinsmobility 	maxSpeed 	13.999307290951
scalar RSUExampleScenario.node[57].veinsmobility 	totalDistance 	1193.7004482058
scalar RSUExampleScenario.node[57].veinsmobility 	totalCO2Emission 	490.51063774375
scalar RSUExampleScenario.node[58].appl 	meanClusterNodes 	5.5
scalar RSUExampleScenario.node[58].appl 	meanClusterHeadUtility 	18.1965647266
scalar RSUExampleScenario.node[58].appl 	NumberofCH 	0.054054054054054
scalar RSUExampleScenario.node[58].appl 	NumberofON 	0.37837837837838
scalar RSUExampleScenario.node[58].appl 	NumberofFN 	0.56756756756757
scalar RSUExampleScenario.node[58].veinsmobility 	startTime 	139.8
scalar RSUExampleScenario.node[58].veinsmobility 	totalTime 	310.2
scalar RSUExampleScenario.node[58].veinsmobility 	stopTime 	450
scalar RSUExampleScenario.node[58].veinsmobility 	minSpeed 	0
scalar RSUExampleScenario.node[58].veinsmobility 	maxSpeed 	13.999936878178
scalar RSUExampleScenario.node[58].veinsmobility 	totalDistance 	1161.7694570781
scalar RSUExampleScenario.node[58].veinsmobility 	totalCO2Emission 	485.49799465617
scalar RSUExampleScenario.node[59].appl 	meanClusterNodes 	0
scalar RSUExampleScenario.node[59].appl 	meanClusterHeadUtility 	0
scalar RSUExampleScenario.node[59].appl 	NumberofCH 	0.054054054054054
scalar RSUExampleScenario.node[59].appl 	NumberofON 	0
scalar RSUExampleScenario.node[59].appl 	NumberofFN 	0.94594594594595
scalar RSUExampleScenario.node[59].veinsmobility 	startTime 	142.2
scalar RSUExampleScenario.node[59].veinsmobility 	totalTime 	307.8
scalar RSUExampleScenario.node[59].veinsmobility 	stopTime 	450
scalar RSUExampleScenario.node[59].veinsmobility 	minSpeed 	0
scalar RSUExampleScenario.node[59].veinsmobility 	maxSpeed 	13.999871390096
scalar RSUExampleScenario.node[59].veinsmobility 	totalDistance 	1124.6122707288
scalar RSUExampleScenario.node[59].veinsmobility 	totalCO2Emission 	479.17158064689
scalar RSUExampleScenario.node[6].appl 	meanClusterNodes 	4
scalar RSUExampleScenario.node[6].appl 	meanClusterHeadUtility 	17.411347850416
scalar RSUExampleScenario.node[6].appl 	NumberofCH 	0.054054054054054
scalar RSUExampleScenario.node[6].appl 	NumberofON 	0.32432432432432
scalar RSUExampleScenario.node[6].appl 	NumberofFN 	0.62162162162162
scalar RSUExampleScenario.node[6].veinsmobility 	startTime 	14.5
scalar RSUExampleScenario.node[6].veinsmobility 	totalTime 	435.5
scalar RSUExampleScenario.node[6].veinsmobility 	stopTime 	450
scalar RSUExampleScenario.node[6].veinsmobility 	minSpeed 	0
scalar RSUExampleScenario.node[6].veinsmobility 	maxSpeed 	13.999906582015
scalar RSUExampleScenario.node[6].veinsmobility 	totalDistance 	2900.755493981
scalar RSUExampleScenario.node[6].veinsmobility 	totalCO2Emission 	778.21391853833
scalar RSUExampleScenario.node[60].appl 	meanClusterNodes 	8.5
scalar RSUExampleScenario.node[60].appl 	meanClusterHeadUtility 	16.833945594881
scalar RSUExampleScenario.node[60].appl 	NumberofCH 	0.054054054054054
scalar RSUExampleScenario.node[60].appl 	NumberofON 	0.43243243243243
scalar RSUExampleScenario.node[60].appl 	NumberofFN 	0.51351351351351
scalar RSUExampleScenario.node[60].veinsmobility 	startTime 	144.7
scalar RSUExampleScenario.node[60].veinsmobility 	totalTime 	305.3
scalar RSUExampleScenario.node[60].veinsmobility 	stopTime 	450
scalar RSUExampleScenario.node[60].veinsmobility 	minSpeed 	0
scalar RSUExampleScenario.node[60].veinsmobility 	maxSpeed 	13.999982117827
scalar RSUExampleScenario.node[60].veinsmobility 	totalDistance 	1092.2210917643
scalar RSUExampleScenario.node[60].veinsmobility 	totalCO2Emission 	472.27318368954
scalar RSUExampleScenario.node[61].appl 	meanClusterNodes 	4
scalar RSUExampleScenario.node[61].appl 	meanClusterHeadUtility 	16.334587029372
scalar RSUExampleScenario.node[61].appl 	NumberofCH 	0.054054054054054
scalar RSUExampleScenario.node[61].appl 	NumberofON 	0.40540540540541
scalar RSUExampleScenario.node[61].appl 	NumberofFN 	0.54054054054054
scalar RSUExampleScenario.node[61].veinsmobility 	startTime 	147.1
scalar RSUExampleScenario.node[61].veinsmobility 	totalTime 	302.9
scalar RSUExampleScenario.node[61].veinsmobility 	stopTime 	450
scalar RSUExampleScenario.node[61].veinsmobility 	minSpeed 	0
scalar RSUExampleScenario.node[61].veinsmobility 	maxSpeed 	13.999842410893
scalar RSUExampleScenario.node[61].veinsmobility 	totalDistance 	1058.8068302138
scalar RSUExampleScenario.node[61].veinsmobility 	totalCO2Emission 	470.71084056585
scalar RSUExampleScenario.node[62].appl 	meanClusterNodes 	0
scalar RSUExampleScenario.node[62].appl 	meanClusterHeadUtility 	0
scalar RSUExampleScenario.node[62].appl 	NumberofCH 	0
scalar RSUExampleScenario.node[62].appl 	NumberofON 	0.2972972972973
scalar RSUExampleScenario.node[62].appl 	NumberofFN 	0.7027027027027
scalar RSUExampleScenario.node[62].veinsmobility 	startTime 	149.5
scalar RSUExampleScenario.node[62].veinsmobility 	totalTime 	300.5
scalar RSUExampleScenario.node[62].veinsmobility 	stopTime 	450
scalar RSUExampleScenario.node[62].veinsmobility 	minSpeed 	0
scalar RSUExampleScenario.node[62].veinsmobility 	maxSpeed 	13.99986682517
scalar RSUExampleScenario.node[62].veinsmobility 	totalDistance 	1025.9455242714
scalar RSUExampleScenario.node[62].veinsmobility 	totalCO2Emission 	462.03028448013
scalar RSUExampleScenario.node[63].appl 	meanClusterNodes 	0
scalar RSUExampleScenario.node[63].appl 	meanClusterHeadUtility 	0
scalar RSUExampleScenario.node[63].appl 	NumberofCH 	0
scalar RSUExampleScenario.node[63].appl 	NumberofON 	0.24324324324324
scalar RSUExampleScenario.node[63].appl 	NumberofFN 	0.75675675675676
scalar RSUExampleScenario.node[63].veinsmobility 	startTime 	151.9
scalar RSUExampleScenario.node[63].veinsmobility 	totalTime 	298.1
scalar RSUExampleScenario.node[63].veinsmobility 	stopTime 	450
scalar RSUExampleScenario.node[63].veinsmobility 	minSpeed 	0
scalar RSUExampleScenario.node[63].veinsmobility 	maxSpeed 	13.999580938919
scalar RSUExampleScenario.node[63].veinsmobility 	totalDistance 	987.41735090226
scalar RSUExampleScenario.node[63].veinsmobility 	totalCO2Emission 	450.26009732065
scalar RSUExampleScenario.node[64].appl 	meanClusterNodes 	0
scalar RSUExampleScenario.node[64].appl 	meanClusterHeadUtility 	0
scalar RSUExampleScenario.node[64].appl 	NumberofCH 	0
scalar RSUExampleScenario.node[64].appl 	NumberofON 	0.27027027027027
scalar RSUExampleScenario.node[64].appl 	NumberofFN 	0.72972972972973
scalar RSUExampleScenario.node[64].veinsmobility 	startTime 	154.3
scalar RSUExampleScenario.node[64].veinsmobility 	totalTime 	295.7
scalar RSUExampleScenario.node[64].veinsmobility 	stopTime 	450
scalar RSUExampleScenario.node[64].veinsmobility 	minSpeed 	0
scalar RSUExampleScenario.node[64].veinsmobility 	maxSpeed 	13.999958051359
scalar RSUExampleScenario.node[64].veinsmobility 	totalDistance 	954.84488139088
scalar RSUExampleScenario.node[64].veinsmobility 	totalCO2Emission 	437.18461533456
scalar RSUExampleScenario.node[65].appl 	meanClusterNodes 	5.5
scalar RSUExampleScenario.node[65].appl 	meanClusterHeadUtility 	16.303939333628
scalar RSUExampleScenario.node[65].appl 	NumberofCH 	0.054054054054054
scalar RSUExampleScenario.node[65].appl 	NumberofON 	0.43243243243243
scalar RSUExampleScenario.node[65].appl 	NumberofFN 	0.51351351351351
scalar RSUExampleScenario.node[65].veinsmobility 	startTime 	156.7
scalar RSUExampleScenario.node[65].veinsmobility 	totalTime 	293.3
scalar RSUExampleScenario.node[65].veinsmobility 	stopTime 	450
scalar RSUExampleScenario.node[65].veinsmobility 	minSpeed 	0
scalar RSUExampleScenario.node[65].veinsmobility 	maxSpeed 	13.999948766564
scalar RSUExampleScenario.node[65].veinsmobility 	totalDistance 	940.52899218546
scalar RSUExampleScenario.node[65].veinsmobility 	totalCO2Emission 	427.45821337032
scalar RSUExampleScenario.node[66].appl 	meanClusterNodes 	2
scalar RSUExampleScenario.node[66].appl 	meanClusterHeadUtility 	19.449252951873
scalar RSUExampleScenario.node[66].appl 	NumberofCH 	0.054054054054054
scalar RSUExampleScenario.node[66].appl 	NumberofON 	0.40540540540541
scalar RSUExampleScenario.node[66].appl 	NumberofFN 	0.54054054054054
scalar RSUExampleScenario.node[66].veinsmobility 	startTime 	159.1
scalar RSUExampleScenario.node[66].veinsmobility 	totalTime 	290.9
scalar RSUExampleScenario.node[66].veinsmobility 	stopTime 	450
scalar RSUExampleScenario.node[66].veinsmobility 	minSpeed 	0
scalar RSUExampleScenario.node[66].veinsmobility 	maxSpeed 	13.999160072987
scalar RSUExampleScenario.node[66].veinsmobility 	totalDistance 	928.37413799663
scalar RSUExampleScenario.node[66].veinsmobility 	totalCO2Emission 	426.57495048649
scalar RSUExampleScenario.node[67].appl 	meanClusterNodes 	7.5
scalar RSUExampleScenario.node[67].appl 	meanClusterHeadUtility 	17.836087040443
scalar RSUExampleScenario.node[67].appl 	NumberofCH 	0.054054054054054
scalar RSUExampleScenario.node[67].appl 	NumberofON 	0.37837837837838
scalar RSUExampleScenario.node[67].appl 	NumberofFN 	0.56756756756757
scalar RSUExampleScenario.node[67].veinsmobility 	startTime 	161.5
scalar RSUExampleScenario.node[67].veinsmobility 	totalTime 	288.5
scalar RSUExampleScenario.node[67].veinsmobility 	stopTime 	450
scalar RSUExampleScenario.node[67].veinsmobility 	minSpeed 	0
scalar RSUExampleScenario.node[67].veinsmobility 	maxSpeed 	13.999334281003
scalar RSUExampleScenario.node[67].veinsmobility 	totalDistance 	912.56382193939
scalar RSUExampleScenario.node[67].veinsmobility 	totalCO2Emission 	421.74335620994
scalar RSUExampleScenario.node[68].appl 	meanClusterNodes 	9.5
scalar RSUExampleScenario.node[68].appl 	meanClusterHeadUtility 	17.646490400568
scalar RSUExampleScenario.node[68].appl 	NumberofCH 	0.054054054054054
scalar RSUExampleScenario.node[68].appl 	NumberofON 	0.24324324324324
scalar RSUExampleScenario.node[68].appl 	NumberofFN 	0.7027027027027
scalar RSUExampleScenario.node[68].veinsmobility 	startTime 	163.9
scalar RSUExampleScenario.node[68].veinsmobility 	totalTime 	286.1
scalar RSUExampleScenario.node[68].veinsmobility 	stopTime 	450
scalar RSUExampleScenario.node[68].veinsmobility 	minSpeed 	0
scalar RSUExampleScenario.node[68].veinsmobility 	maxSpeed 	13.99995748895
scalar RSUExampleScenario.node[68].veinsmobility 	totalDistance 	892.33366247469
scalar RSUExampleScenario.node[68].veinsmobility 	totalCO2Emission 	419.35693820926
scalar RSUExampleScenario.node[69].appl 	meanClusterNodes 	9
scalar RSUExampleScenario.node[69].appl 	meanClusterHeadUtility 	17.679729388275
scalar RSUExampleScenario.node[69].appl 	NumberofCH 	0.054054054054054
scalar RSUExampleScenario.node[69].appl 	NumberofON 	0.24324324324324
scalar RSUExampleScenario.node[69].appl 	NumberofFN 	0.7027027027027
scalar RSUExampleScenario.node[69].veinsmobility 	startTime 	166.3
scalar RSUExampleScenario.node[69].veinsmobility 	totalTime 	283.7
scalar RSUExampleScenario.node[69].veinsmobility 	stopTime 	450
scalar RSUExampleScenario.node[69].veinsmobility 	minSpeed 	0
scalar RSUExampleScenario.node[69].veinsmobility 	maxSpeed 	13.999916271886
scalar RSUExampleScenario.node[69].veinsmobility 	totalDistance 	859.08815353009
scalar RSUExampleScenario.node[69].veinsmobility 	totalCO2Emission 	414.20425792503
scalar RSUExampleScenario.node[7].appl 	meanClusterNodes 	7.75
scalar RSUExampleScenario.node[7].appl 	meanClusterHeadUtility 	9.5182160787951
scalar RSUExampleScenario.node[7].appl 	NumberofCH 	0.10810810810811
scalar RSUExampleScenario.node[7].appl 	NumberofON 	0.10810810810811
scalar RSUExampleScenario.node[7].appl 	NumberofFN 	0.78378378378378
scalar RSUExampleScenario.node[7].veinsmobility 	startTime 	16.9
scalar RSUExampleScenario.node[7].veinsmobility 	totalTime 	433.1
scalar RSUExampleScenario.node[7].veinsmobility 	stopTime 	450
scalar RSUExampleScenario.node[7].veinsmobility 	minSpeed 	0
scalar RSUExampleScenario.node[7].veinsmobility 	maxSpeed 	13.999992944503
scalar RSUExampleScenario.node[7].veinsmobility 	totalDistance 	2888.3758393989
scalar RSUExampleScenario.node[7].veinsmobility 	totalCO2Emission 	779.71714861197
scalar RSUExampleScenario.node[70].appl 	meanClusterNodes 	0
scalar RSUExampleScenario.node[70].appl 	meanClusterHeadUtility 	0
scalar RSUExampleScenario.node[70].appl 	NumberofCH 	0
scalar RSUExampleScenario.node[70].appl 	NumberofON 	0.43243243243243
scalar RSUExampleScenario.node[70].appl 	NumberofFN 	0.56756756756757
scalar RSUExampleScenario.node[70].veinsmobility 	startTime 	168.8
scalar RSUExampleScenario.node[70].veinsmobility 	totalTime 	281.2
scalar RSUExampleScenario.node[70].veinsmobility 	stopTime 	450
scalar RSUExampleScenario.node[70].veinsmobility 	minSpeed 	0
scalar RSUExampleScenario.node[70].veinsmobility 	maxSpeed 	13.999637956324
scalar RSUExampleScenario.node[70].veinsmobility 	totalDistance 	825.02328300089
scalar RSUExampleScenario.node[70].veinsmobility 	totalCO2Emission 	409.12425297614
scalar RSUExampleScenario.node[71].appl 	meanClusterNodes 	6.5
scalar RSUExampleScenario.node[71].appl 	meanClusterHeadUtility 	20.656225687215
scalar RSUExampleScenario.node[71].appl 	NumberofCH 	0.054054054054054
scalar RSUExampleScenario.node[71].appl 	NumberofON 	0.54054054054054
scalar RSUExampleScenario.node[71].appl 	NumberofFN 	0.40540540540541
scalar RSUExampleScenario.node[71].veinsmobility 	startTime 	171.2
scalar RSUExampleScenario.node[71].veinsmobility 	totalTime 	278.8
scalar RSUExampleScenario.node[71].veinsmobility 	stopTime 	450
scalar RSUExampleScenario.node[71].veinsmobility 	minSpeed 	0
scalar RSUExampleScenario.node[71].veinsmobility 	maxSpeed 	13.999720690104
scalar RSUExampleScenario.node[71].veinsmobility 	totalDistance 	792.32573635343
scalar RSUExampleScenario.node[71].veinsmobility 	totalCO2Emission 	402.74399796465
scalar RSUExampleScenario.node[72].appl 	meanClusterNodes 	0
scalar RSUExampleScenario.node[72].appl 	meanClusterHeadUtility 	0
scalar RSUExampleScenario.node[72].appl 	NumberofCH 	0
scalar RSUExampleScenario.node[72].appl 	NumberofON 	0.56756756756757
scalar RSUExampleScenario.node[72].appl 	NumberofFN 	0.43243243243243
scalar RSUExampleScenario.node[72].veinsmobility 	startTime 	173.6
scalar RSUExampleScenario.node[72].veinsmobility 	totalTime 	276.4
scalar RSUExampleScenario.node[72].veinsmobility 	stopTime 	450
scalar RSUExampleScenario.node[72].veinsmobility 	minSpeed 	0
scalar RSUExampleScenario.node[72].veinsmobility 	maxSpeed 	13.999960096839
scalar RSUExampleScenario.node[72].veinsmobility 	totalDistance 	759.65483572261
scalar RSUExampleScenario.node[72].veinsmobility 	totalCO2Emission 	397.741854514
scalar RSUExampleScenario.node[73].appl 	meanClusterNodes 	6.5
scalar RSUExampleScenario.node[73].appl 	meanClusterHeadUtility 	16.038682662822
scalar RSUExampleScenario.node[73].appl 	NumberofCH 	0.054054054054054
scalar RSUExampleScenario.node[73].appl 	NumberofON 	0.35135135135135
scalar RSUExampleScenario.node[73].appl 	NumberofFN 	0.59459459459459
scalar RSUExampleScenario.node[73].veinsmobility 	startTime 	176
scalar RSUExampleScenario.node[73].veinsmobility 	totalTime 	274
scalar RSUExampleScenario.node[73].veinsmobility 	stopTime 	450
scalar RSUExampleScenario.node[73].veinsmobility 	minSpeed 	0
scalar RSUExampleScenario.node[73].veinsmobility 	maxSpeed 	13.999662707453
scalar RSUExampleScenario.node[73].veinsmobility 	totalDistance 	724.78971848176
scalar RSUExampleScenario.node[73].veinsmobility 	totalCO2Emission 	389.4100119438
scalar RSUExampleScenario.node[74].appl 	meanClusterNodes 	0
scalar RSUExampleScenario.node[74].appl 	meanClusterHeadUtility 	0
scalar RSUExampleScenario.node[74].appl 	NumberofCH 	0
scalar RSUExampleScenario.node[74].appl 	NumberofON 	0.32432432432432
scalar RSUExampleScenario.node[74].appl 	NumberofFN 	0.67567567567568
scalar RSUExampleScenario.node[74].veinsmobility 	startTime 	178.4
scalar RSUExampleScenario.node[74].veinsmobility 	totalTime 	271.6
scalar RSUExampleScenario.node[74].veinsmobility 	stopTime 	450
scalar RSUExampleScenario.node[74].veinsmobility 	minSpeed 	0
scalar RSUExampleScenario.node[74].veinsmobility 	maxSpeed 	13.999909121832
scalar RSUExampleScenario.node[74].veinsmobility 	totalDistance 	689.80398689943
scalar RSUExampleScenario.node[74].veinsmobility 	totalCO2Emission 	383.68499713077
scalar RSUExampleScenario.node[75].appl 	meanClusterNodes 	4.5
scalar RSUExampleScenario.node[75].appl 	meanClusterHeadUtility 	17.1444419852
scalar RSUExampleScenario.node[75].appl 	NumberofCH 	0.054054054054054
scalar RSUExampleScenario.node[75].appl 	NumberofON 	0.2972972972973
scalar RSUExampleScenario.node[75].appl 	NumberofFN 	0.64864864864865
scalar RSUExampleScenario.node[75].veinsmobility 	startTime 	180.8
scalar RSUExampleScenario.node[75].veinsmobility 	totalTime 	269.2
scalar RSUExampleScenario.node[75].veinsmobility 	stopTime 	450
scalar RSUExampleScenario.node[75].veinsmobility 	minSpeed 	0
scalar RSUExampleScenario.node[75].veinsmobility 	maxSpeed 	13.999673553046
scalar RSUExampleScenario.node[75].veinsmobility 	totalDistance 	657.99962010603
scalar RSUExampleScenario.node[75].veinsmobility 	totalCO2Emission 	378.90596564563
scalar RSUExampleScenario.node[76].appl 	meanClusterNodes 	0
scalar RSUExampleScenario.node[76].appl 	meanClusterHeadUtility 	0
scalar RSUExampleScenario.node[76].appl 	NumberofCH 	0
scalar RSUExampleScenario.node[76].appl 	NumberofON 	0.27027027027027
scalar RSUExampleScenario.node[76].appl 	NumberofFN 	0.72972972972973
scalar RSUExampleScenario.node[76].veinsmobility 	startTime 	183.2
scalar RSUExampleScenario.node[76].veinsmobility 	totalTime 	266.8
scalar RSUExampleScenario.node[76].veinsmobility 	stopTime 	450
scalar RSUExampleScenario.node[76].veinsmobility 	minSpeed 	0
scalar RSUExampleScenario.node[76].veinsmobility 	maxSpeed 	13.999970011692
scalar RSUExampleScenario.node[76].veinsmobility 	totalDistance 	623.26407122309
scalar RSUExampleScenario.node[76].veinsmobility 	totalCO2Emission 	374.27297648416
scalar RSUExampleScenario.node[77].appl 	meanClusterNodes 	0
scalar RSUExampleScenario.node[77].appl 	meanClusterHeadUtility 	0
scalar RSUExampleScenario.node[77].appl 	NumberofCH 	0
scalar RSUExampleScenario.node[77].appl 	NumberofON 	0.40540540540541
scalar RSUExampleScenario.node[77].appl 	NumberofFN 	0.59459459459459
scalar RSUExampleScenario.node[77].veinsmobility 	startTime 	185.6
scalar RSUExampleScenario.node[77].veinsmobility 	totalTime 	264.4
scalar RSUExampleScenario.node[77].veinsmobility 	stopTime 	450
scalar RSUExampleScenario.node[77].veinsmobility 	minSpeed 	0
scalar RSUExampleScenario.node[77].veinsmobility 	maxSpeed 	13.999674972948
scalar RSUExampleScenario.node[77].veinsmobility 	totalDistance 	589.61979076672
scalar RSUExampleScenario.node[77].veinsmobility 	totalCO2Emission 	367.70328777187
scalar RSUExampleScenario.node[78].appl 	meanClusterNodes 	0
scalar RSUExampleScenario.node[78].appl 	meanClusterHeadUtility 	0
scalar RSUExampleScenario.node[78].appl 	NumberofCH 	0
scalar RSUExampleScenario.node[78].appl 	NumberofON 	0.2972972972973
scalar RSUExampleScenario.node[78].appl 	NumberofFN 	0.7027027027027
scalar RSUExampleScenario.node[78].veinsmobility 	startTime 	188
scalar RSUExampleScenario.node[78].veinsmobility 	totalTime 	262
scalar RSUExampleScenario.node[78].veinsmobility 	stopTime 	450
scalar RSUExampleScenario.node[78].veinsmobility 	minSpeed 	0
scalar RSUExampleScenario.node[78].veinsmobility 	maxSpeed 	13.999466729492
scalar RSUExampleScenario.node[78].veinsmobility 	totalDistance 	555.31094197048
scalar RSUExampleScenario.node[78].veinsmobility 	totalCO2Emission 	362.46730401742
scalar RSUExampleScenario.node[79].appl 	meanClusterNodes 	3.5
scalar RSUExampleScenario.node[79].appl 	meanClusterHeadUtility 	17.122354043441
scalar RSUExampleScenario.node[79].appl 	NumberofCH 	0.054054054054054
scalar RSUExampleScenario.node[79].appl 	NumberofON 	0.37837837837838
scalar RSUExampleScenario.node[79].appl 	NumberofFN 	0.56756756756757
scalar RSUExampleScenario.node[79].veinsmobility 	startTime 	190.4
scalar RSUExampleScenario.node[79].veinsmobility 	totalTime 	259.6
scalar RSUExampleScenario.node[79].veinsmobility 	stopTime 	450
scalar RSUExampleScenario.node[79].veinsmobility 	minSpeed 	0
scalar RSUExampleScenario.node[79].veinsmobility 	maxSpeed 	13.999219006659
scalar RSUExampleScenario.node[79].veinsmobility 	totalDistance 	522.63270379004
scalar RSUExampleScenario.node[79].veinsmobility 	totalCO2Emission 	356.66487681598
scalar RSUExampleScenario.node[8].appl 	meanClusterNodes 	0
scalar RSUExampleScenario.node[8].appl 	meanClusterHeadUtility 	0
scalar RSUExampleScenario.node[8].appl 	NumberofCH 	0.054054054054054
scalar RSUExampleScenario.node[8].appl 	NumberofON 	0.10810810810811
scalar RSUExampleScenario.node[8].appl 	NumberofFN 	0.83783783783784
scalar RSUExampleScenario.node[8].veinsmobility 	startTime 	19.3
scalar RSUExampleScenario.node[8].veinsmobility 	totalTime 	430.7
scalar RSUExampleScenario.node[8].veinsmobility 	stopTime 	450
scalar RSUExampleScenario.node[8].veinsmobility 	minSpeed 	0
scalar RSUExampleScenario.node[8].veinsmobility 	maxSpeed 	13.999965263221
scalar RSUExampleScenario.node[8].veinsmobility 	totalDistance 	2855.8037415974
scalar RSUExampleScenario.node[8].veinsmobility 	totalCO2Emission 	769.02243844819
scalar RSUExampleScenario.node[80].appl 	meanClusterNodes 	8
scalar RSUExampleScenario.node[80].appl 	meanClusterHeadUtility 	18.114189055009
scalar RSUExampleScenario.node[80].appl 	NumberofCH 	0.054054054054054
scalar RSUExampleScenario.node[80].appl 	NumberofON 	0.32432432432432
scalar RSUExampleScenario.node[80].appl 	NumberofFN 	0.62162162162162
scalar RSUExampleScenario.node[80].veinsmobility 	startTime 	192.9
scalar RSUExampleScenario.node[80].veinsmobility 	totalTime 	257.1
scalar RSUExampleScenario.node[80].veinsmobility 	stopTime 	450
scalar RSUExampleScenario.node[80].veinsmobility 	minSpeed 	0
scalar RSUExampleScenario.node[80].veinsmobility 	maxSpeed 	13.998099386133
scalar RSUExampleScenario.node[80].veinsmobility 	totalDistance 	488.74734566402
scalar RSUExampleScenario.node[80].veinsmobility 	totalCO2Emission 	350.64066822203
scalar RSUExampleScenario.node[81].appl 	meanClusterNodes 	0
scalar RSUExampleScenario.node[81].appl 	meanClusterHeadUtility 	0
scalar RSUExampleScenario.node[81].appl 	NumberofCH 	0
scalar RSUExampleScenario.node[81].appl 	NumberofON 	0.13513513513514
scalar RSUExampleScenario.node[81].appl 	NumberofFN 	0.86486486486486
scalar RSUExampleScenario.node[81].veinsmobility 	startTime 	195.3
scalar RSUExampleScenario.node[81].veinsmobility 	totalTime 	254.7
scalar RSUExampleScenario.node[81].veinsmobility 	stopTime 	450
scalar RSUExampleScenario.node[81].veinsmobility 	minSpeed 	0
scalar RSUExampleScenario.node[81].veinsmobility 	maxSpeed 	13.997540583371
scalar RSUExampleScenario.node[81].veinsmobility 	totalDistance 	455.8417332092
scalar RSUExampleScenario.node[81].veinsmobility 	totalCO2Emission 	344.55967252517
scalar RSUExampleScenario.node[82].appl 	meanClusterNodes 	7
scalar RSUExampleScenario.node[82].appl 	meanClusterHeadUtility 	17.055379033413
scalar RSUExampleScenario.node[82].appl 	NumberofCH 	0.054054054054054
scalar RSUExampleScenario.node[82].appl 	NumberofON 	0.24324324324324
scalar RSUExampleScenario.node[82].appl 	NumberofFN 	0.7027027027027
scalar RSUExampleScenario.node[82].veinsmobility 	startTime 	197.7
scalar RSUExampleScenario.node[82].veinsmobility 	totalTime 	252.3
scalar RSUExampleScenario.node[82].veinsmobility 	stopTime 	450
scalar RSUExampleScenario.node[82].veinsmobility 	minSpeed 	0
scalar RSUExampleScenario.node[82].veinsmobility 	maxSpeed 	13.996660959565
scalar RSUExampleScenario.node[82].veinsmobility 	totalDistance 	421.72934555458
scalar RSUExampleScenario.node[82].veinsmobility 	totalCO2Emission 	339.28198807723
scalar RSUExampleScenario.node[83].appl 	meanClusterNodes 	0
scalar RSUExampleScenario.node[83].appl 	meanClusterHeadUtility 	0
scalar RSUExampleScenario.node[83].appl 	NumberofCH 	0
scalar RSUExampleScenario.node[83].appl 	NumberofON 	0.27027027027027
scalar RSUExampleScenario.node[83].appl 	NumberofFN 	0.72972972972973
scalar RSUExampleScenario.node[83].veinsmobility 	startTime 	200.1
scalar RSUExampleScenario.node[83].veinsmobility 	totalTime 	249.9
scalar RSUExampleScenario.node[83].veinsmobility 	stopTime 	450
scalar RSUExampleScenario.node[83].veinsmobility 	minSpeed 	0
scalar RSUExampleScenario.node[83].veinsmobility 	maxSpeed 	13.998818197625
scalar RSUExampleScenario.node[83].veinsmobility 	totalDistance 	387.84872416506
scalar RSUExampleScenario.node[83].veinsmobility 	totalCO2Emission 	333.73339585715
scalar RSUExampleScenario.node[84].appl 	meanClusterNodes 	4.5
scalar RSUExampleScenario.node[84].appl 	meanClusterHeadUtility 	16.098150222117
scalar RSUExampleScenario.node[84].appl 	NumberofCH 	0.054054054054054
scalar RSUExampleScenario.node[84].appl 	NumberofON 	0.27027027027027
scalar RSUExampleScenario.node[84].appl 	NumberofFN 	0.67567567567568
scalar RSUExampleScenario.node[84].veinsmobility 	startTime 	202.5
scalar RSUExampleScenario.node[84].veinsmobility 	totalTime 	247.5
scalar RSUExampleScenario.node[84].veinsmobility 	stopTime 	450
scalar RSUExampleScenario.node[84].veinsmobility 	minSpeed 	0
scalar RSUExampleScenario.node[84].veinsmobility 	maxSpeed 	13.999936781109
scalar RSUExampleScenario.node[84].veinsmobility 	totalDistance 	354.9390463944
scalar RSUExampleScenario.node[84].veinsmobility 	totalCO2Emission 	328.17467398646
scalar RSUExampleScenario.node[85].appl 	meanClusterNodes 	6
scalar RSUExampleScenario.node[85].appl 	meanClusterHeadUtility 	17.565218641461
scalar RSUExampleScenario.node[85].appl 	NumberofCH 	0.054054054054054
scalar RSUExampleScenario.node[85].appl 	NumberofON 	0.35135135135135
scalar RSUExampleScenario.node[85].appl 	NumberofFN 	0.59459459459459
scalar RSUExampleScenario.node[85].veinsmobility 	startTime 	204.9
scalar RSUExampleScenario.node[85].veinsmobility 	totalTime 	245.1
scalar RSUExampleScenario.node[85].veinsmobility 	stopTime 	450
scalar RSUExampleScenario.node[85].veinsmobility 	minSpeed 	0
scalar RSUExampleScenario.node[85].veinsmobility 	maxSpeed 	13.990507451545
scalar RSUExampleScenario.node[85].veinsmobility 	totalDistance 	321.89517964172
scalar RSUExampleScenario.node[85].veinsmobility 	totalCO2Emission 	322.99691410405
scalar RSUExampleScenario.node[86].appl 	meanClusterNodes 	5
scalar RSUExampleScenario.node[86].appl 	meanClusterHeadUtility 	17.808371829129
scalar RSUExampleScenario.node[86].appl 	NumberofCH 	0.054054054054054
scalar RSUExampleScenario.node[86].appl 	NumberofON 	0.16216216216216
scalar RSUExampleScenario.node[86].appl 	NumberofFN 	0.78378378378378
scalar RSUExampleScenario.node[86].veinsmobility 	startTime 	207.3
scalar RSUExampleScenario.node[86].veinsmobility 	totalTime 	242.7
scalar RSUExampleScenario.node[86].veinsmobility 	stopTime 	450
scalar RSUExampleScenario.node[86].veinsmobility 	minSpeed 	0
scalar RSUExampleScenario.node[86].veinsmobility 	maxSpeed 	13.861434024062
scalar RSUExampleScenario.node[86].veinsmobility 	totalDistance 	282.51422898798
scalar RSUExampleScenario.node[86].veinsmobility 	totalCO2Emission 	313.39470684915
scalar RSUExampleScenario.node[87].appl 	meanClusterNodes 	6.5
scalar RSUExampleScenario.node[87].appl 	meanClusterHeadUtility 	17.93489680297
scalar RSUExampleScenario.node[87].appl 	NumberofCH 	0.054054054054054
scalar RSUExampleScenario.node[87].appl 	NumberofON 	0.18918918918919
scalar RSUExampleScenario.node[87].appl 	NumberofFN 	0.75675675675676
scalar RSUExampleScenario.node[87].veinsmobility 	startTime 	209.7
scalar RSUExampleScenario.node[87].veinsmobility 	totalTime 	240.3
scalar RSUExampleScenario.node[87].veinsmobility 	stopTime 	450
scalar RSUExampleScenario.node[87].veinsmobility 	minSpeed 	0
scalar RSUExampleScenario.node[87].veinsmobility 	maxSpeed 	13.7696688928
scalar RSUExampleScenario.node[87].veinsmobility 	totalDistance 	247.75413014826
scalar RSUExampleScenario.node[87].veinsmobility 	totalCO2Emission 	298.05552977936
scalar RSUExampleScenario.node[88].appl 	meanClusterNodes 	0
scalar RSUExampleScenario.node[88].appl 	meanClusterHeadUtility 	0
scalar RSUExampleScenario.node[88].appl 	NumberofCH 	0.054054054054054
scalar RSUExampleScenario.node[88].appl 	NumberofON 	0.24324324324324
scalar RSUExampleScenario.node[88].appl 	NumberofFN 	0.7027027027027
scalar RSUExampleScenario.node[88].veinsmobility 	startTime 	212.1
scalar RSUExampleScenario.node[88].veinsmobility 	totalTime 	237.9
scalar RSUExampleScenario.node[88].veinsmobility 	stopTime 	450
scalar RSUExampleScenario.node[88].veinsmobility 	minSpeed 	0
scalar RSUExampleScenario.node[88].veinsmobility 	maxSpeed 	13.847150861735
scalar RSUExampleScenario.node[88].veinsmobility 	totalDistance 	225.53982976301
scalar RSUExampleScenario.node[88].veinsmobility 	totalCO2Emission 	287.01647759758
scalar RSUExampleScenario.node[89].appl 	meanClusterNodes 	7
scalar RSUExampleScenario.node[89].appl 	meanClusterHeadUtility 	16.688707651867
scalar RSUExampleScenario.node[89].appl 	NumberofCH 	0.054054054054054
scalar RSUExampleScenario.node[89].appl 	NumberofON 	0.27027027027027
scalar RSUExampleScenario.node[89].appl 	NumberofFN 	0.67567567567568
scalar RSUExampleScenario.node[89].veinsmobility 	startTime 	214.5
scalar RSUExampleScenario.node[89].veinsmobility 	totalTime 	235.5
scalar RSUExampleScenario.node[89].veinsmobility 	stopTime 	450
scalar RSUExampleScenario.node[89].veinsmobility 	minSpeed 	0
scalar RSUExampleScenario.node[89].veinsmobility 	maxSpeed 	13.802792727854
scalar RSUExampleScenario.node[89].veinsmobility 	totalDistance 	214.97267513875
scalar RSUExampleScenario.node[89].veinsmobility 	totalCO2Emission 	282.70724065346
scalar RSUExampleScenario.node[9].appl 	meanClusterNodes 	0
scalar RSUExampleScenario.node[9].appl 	meanClusterHeadUtility 	0
scalar RSUExampleScenario.node[9].appl 	NumberofCH 	0
scalar RSUExampleScenario.node[9].appl 	NumberofON 	0.24324324324324
scalar RSUExampleScenario.node[9].appl 	NumberofFN 	0.75675675675676
scalar RSUExampleScenario.node[9].veinsmobility 	startTime 	21.7
scalar RSUExampleScenario.node[9].veinsmobility 	totalTime 	428.3
scalar RSUExampleScenario.node[9].veinsmobility 	stopTime 	450
scalar RSUExampleScenario.node[9].veinsmobility 	minSpeed 	0
scalar RSUExampleScenario.node[9].veinsmobility 	maxSpeed 	13.999880074556
scalar RSUExampleScenario.node[9].veinsmobility 	totalDistance 	2829.3577313687
scalar RSUExampleScenario.node[9].veinsmobility 	totalCO2Emission 	762.1537961754
scalar RSUExampleScenario.node[90].appl 	meanClusterNodes 	4.5
scalar RSUExampleScenario.node[90].appl 	meanClusterHeadUtility 	18.16952522488
scalar RSUExampleScenario.node[90].appl 	NumberofCH 	0.054054054054054
scalar RSUExampleScenario.node[90].appl 	NumberofON 	0.48648648648649
scalar RSUExampleScenario.node[90].appl 	NumberofFN 	0.45945945945946
scalar RSUExampleScenario.node[90].veinsmobility 	startTime 	217
scalar RSUExampleScenario.node[90].veinsmobility 	totalTime 	233
scalar RSUExampleScenario.node[90].veinsmobility 	stopTime 	450
scalar RSUExampleScenario.node[90].veinsmobility 	minSpeed 	0
scalar RSUExampleScenario.node[90].veinsmobility 	maxSpeed 	13.843893936917
scalar RSUExampleScenario.node[90].veinsmobility 	totalDistance 	201.69776521169
scalar RSUExampleScenario.node[90].veinsmobility 	totalCO2Emission 	279.95947287185
scalar RSUExampleScenario.node[91].appl 	meanClusterNodes 	0
scalar RSUExampleScenario.node[91].appl 	meanClusterHeadUtility 	0
scalar RSUExampleScenario.node[91].appl 	NumberofCH 	0
scalar RSUExampleScenario.node[91].appl 	NumberofON 	0.27027027027027
scalar RSUExampleScenario.node[91].appl 	NumberofFN 	0.72972972972973
scalar RSUExampleScenario.node[91].veinsmobility 	startTime 	219.4
scalar RSUExampleScenario.node[91].veinsmobility 	totalTime 	230.6
scalar RSUExampleScenario.node[91].veinsmobility 	stopTime 	450
scalar RSUExampleScenario.node[91].veinsmobility 	minSpeed 	0
scalar RSUExampleScenario.node[91].veinsmobility 	maxSpeed 	13.732435639209
scalar RSUExampleScenario.node[91].veinsmobility 	totalDistance 	185.06399553734
scalar RSUExampleScenario.node[91].veinsmobility 	totalCO2Emission 	277.43520260019
scalar RSUExampleScenario.node[92].appl 	meanClusterNodes 	2
scalar RSUExampleScenario.node[92].appl 	meanClusterHeadUtility 	19.90267809227
scalar RSUExampleScenario.node[92].appl 	NumberofCH 	0.054054054054054
scalar RSUExampleScenario.node[92].appl 	NumberofON 	0.37837837837838
scalar RSUExampleScenario.node[92].appl 	NumberofFN 	0.56756756756757
scalar RSUExampleScenario.node[92].veinsmobility 	startTime 	221.8
scalar RSUExampleScenario.node[92].veinsmobility 	totalTime 	228.2
scalar RSUExampleScenario.node[92].veinsmobility 	stopTime 	450
scalar RSUExampleScenario.node[92].veinsmobility 	minSpeed 	0
scalar RSUExampleScenario.node[92].veinsmobility 	maxSpeed 	13.803773266865
scalar RSUExampleScenario.node[92].veinsmobility 	totalDistance 	152.55206528183
scalar RSUExampleScenario.node[92].veinsmobility 	totalCO2Emission 	265.42416981738
scalar RSUExampleScenario.node[93].appl 	meanClusterNodes 	0
scalar RSUExampleScenario.node[93].appl 	meanClusterHeadUtility 	0
scalar RSUExampleScenario.node[93].appl 	NumberofCH 	0
scalar RSUExampleScenario.node[93].appl 	NumberofON 	0.32432432432432
scalar RSUExampleScenario.node[93].appl 	NumberofFN 	0.67567567567568
scalar RSUExampleScenario.node[93].veinsmobility 	startTime 	224.2
scalar RSUExampleScenario.node[93].veinsmobility 	totalTime 	225.8
scalar RSUExampleScenario.node[93].veinsmobility 	stopTime 	450
scalar RSUExampleScenario.node[93].veinsmobility 	minSpeed 	0
scalar RSUExampleScenario.node[93].veinsmobility 	maxSpeed 	13.853430046781
scalar RSUExampleScenario.node[93].veinsmobility 	totalDistance 	122.9408319095
scalar RSUExampleScenario.node[93].veinsmobility 	totalCO2Emission 	251.57404681584
scalar RSUExampleScenario.node[94].appl 	meanClusterNodes 	0
scalar RSUExampleScenario.node[94].appl 	meanClusterHeadUtility 	0
scalar RSUExampleScenario.node[94].appl 	NumberofCH 	0
scalar RSUExampleScenario.node[94].appl 	NumberofON 	0.35135135135135
scalar RSUExampleScenario.node[94].appl 	NumberofFN 	0.64864864864865
scalar RSUExampleScenario.node[94].veinsmobility 	startTime 	226.6
scalar RSUExampleScenario.node[94].veinsmobility 	totalTime 	223.4
scalar RSUExampleScenario.node[94].veinsmobility 	stopTime 	450
scalar RSUExampleScenario.node[94].veinsmobility 	minSpeed 	0
scalar RSUExampleScenario.node[94].veinsmobility 	maxSpeed 	13.794082787416
scalar RSUExampleScenario.node[94].veinsmobility 	totalDistance 	111.71172066961
scalar RSUExampleScenario.node[94].veinsmobility 	totalCO2Emission 	245.5688169634
scalar RSUExampleScenario.node[95].appl 	meanClusterNodes 	10.5
scalar RSUExampleScenario.node[95].appl 	meanClusterHeadUtility 	18.284904931751
scalar RSUExampleScenario.node[95].appl 	NumberofCH 	0.054054054054054
scalar RSUExampleScenario.node[95].appl 	NumberofON 	0.13513513513514
scalar RSUExampleScenario.node[95].appl 	NumberofFN 	0.81081081081081
scalar RSUExampleScenario.node[95].veinsmobility 	startTime 	229
scalar RSUExampleScenario.node[95].veinsmobility 	totalTime 	221
scalar RSUExampleScenario.node[95].veinsmobility 	stopTime 	450
scalar RSUExampleScenario.node[95].veinsmobility 	minSpeed 	0
scalar RSUExampleScenario.node[95].veinsmobility 	maxSpeed 	13.883144314894
scalar RSUExampleScenario.node[95].veinsmobility 	totalDistance 	98.450277902441
scalar RSUExampleScenario.node[95].veinsmobility 	totalCO2Emission 	242.48265921396
scalar RSUExampleScenario.node[96].appl 	meanClusterNodes 	6
scalar RSUExampleScenario.node[96].appl 	meanClusterHeadUtility 	19.890429955679
scalar RSUExampleScenario.node[96].appl 	NumberofCH 	0.054054054054054
scalar RSUExampleScenario.node[96].appl 	NumberofON 	0.2972972972973
scalar RSUExampleScenario.node[96].appl 	NumberofFN 	0.64864864864865
scalar RSUExampleScenario.node[96].veinsmobility 	startTime 	231.4
scalar RSUExampleScenario.node[96].veinsmobility 	totalTime 	218.6
scalar RSUExampleScenario.node[96].veinsmobility 	stopTime 	450
scalar RSUExampleScenario.node[96].veinsmobility 	minSpeed 	0
scalar RSUExampleScenario.node[96].veinsmobility 	maxSpeed 	13.853465178618
scalar RSUExampleScenario.node[96].veinsmobility 	totalDistance 	82.35376578104
scalar RSUExampleScenario.node[96].veinsmobility 	totalCO2Emission 	239.91498216007
scalar RSUExampleScenario.node[97].appl 	meanClusterNodes 	0
scalar RSUExampleScenario.node[97].appl 	meanClusterHeadUtility 	0
scalar RSUExampleScenario.node[97].appl 	NumberofCH 	0
scalar RSUExampleScenario.node[97].appl 	NumberofON 	0.16216216216216
scalar RSUExampleScenario.node[97].appl 	NumberofFN 	0.83783783783784
scalar RSUExampleScenario.node[97].veinsmobility 	startTime 	233.8
scalar RSUExampleScenario.node[97].veinsmobility 	totalTime 	216.2
scalar RSUExampleScenario.node[97].veinsmobility 	stopTime 	450
scalar RSUExampleScenario.node[97].veinsmobility 	minSpeed 	0
scalar RSUExampleScenario.node[97].veinsmobility 	maxSpeed 	12.362398723703
scalar RSUExampleScenario.node[97].veinsmobility 	totalDistance 	56.273798633966
scalar RSUExampleScenario.node[97].veinsmobility 	totalCO2Emission 	232.01818898976
scalar RSUExampleScenario.node[98].appl 	meanClusterNodes 	0
scalar RSUExampleScenario.node[98].appl 	meanClusterHeadUtility 	0
scalar RSUExampleScenario.node[98].appl 	NumberofCH 	0
scalar RSUExampleScenario.node[98].appl 	NumberofON 	0.16216216216216
scalar RSUExampleScenario.node[98].appl 	NumberofFN 	0.83783783783784
scalar RSUExampleScenario.node[98].veinsmobility 	startTime 	236.2
scalar RSUExampleScenario.node[98].veinsmobility 	totalTime 	213.8
scalar RSUExampleScenario.node[98].veinsmobility 	stopTime 	450
scalar RSUExampleScenario.node[98].veinsmobility 	minSpeed 	0
scalar RSUExampleScenario.node[98].veinsmobility 	maxSpeed 	7.8075183707607
scalar RSUExampleScenario.node[98].veinsmobility 	totalDistance 	22.188331251363
scalar RSUExampleScenario.node[98].veinsmobility 	totalCO2Emission 	216.77394588045
scalar RSUExampleScenario.node[99].appl 	meanClusterNodes 	0
scalar RSUExampleScenario.node[99].appl 	meanClusterHeadUtility 	0
scalar RSUExampleScenario.node[99].appl 	NumberofCH 	0
scalar RSUExampleScenario.node[99].appl 	NumberofON 	0.32432432432432
scalar RSUExampleScenario.node[99].appl 	NumberofFN 	0.67567567567568
scalar RSUExampleScenario.node[99].veinsmobility 	startTime 	238.6
scalar RSUExampleScenario.node[99].veinsmobility 	totalTime 	211.4
scalar RSUExampleScenario.node[99].veinsmobility 	stopTime 	450
scalar RSUExampleScenario.node[99].veinsmobility 	minSpeed 	0
scalar RSUExampleScenario.node[99].veinsmobility 	maxSpeed 	3.192086628372
scalar RSUExampleScenario.node[99].veinsmobility 	totalDistance 	3.4357918265968
scalar RSUExampleScenario.node[99].veinsmobility 	totalCO2Emission 	207.19320669168
