version 2
run statistic7-542-20150316-04:53:23-3316
attr c 6
attr configname statistic7
attr datetime 20150316-04:53:23
attr experiment statistic7
attr inifile omnetpp.ini
attr iterationvars "$p=1/2, $c=6"
attr iterationvars2 "$p=1/2, $c=6, $repetition=42"
attr measurement "$p=1/2, $c=6"
attr network RSUExampleScenario
attr p 1/2
attr processid 3316
attr repetition 42
attr replication #42
attr resultdir results
attr runnumber 542
attr seedset 542

scalar . 	c 	6
scalar RSUExampleScenario.rsu[0].appl 	NumberofCH 	50
scalar RSUExampleScenario.rsu[0].appl 	NumberofON 	49
scalar RSUExampleScenario.rsu[0].appl 	NumberofFN 	1
scalar RSUExampleScenario.rsu[0].appl 	meanClusterNodes 	50
scalar RSUExampleScenario.rsu[0].appl 	varClusterNodes 	7.0710678118655
scalar RSUExampleScenario.rsu[0].appl 	sumCHutility 	1182.1304373692
scalar RSUExampleScenario.rsu[0].appl 	meanCHutility 	50
scalar RSUExampleScenario.rsu[0].appl 	varCHutility 	7.0710678118655
scalar RSUExampleScenario.rsu[0].appl 	sumDiffCHutility 	516.61027027604
scalar RSUExampleScenario.rsu[0].appl 	meanDiffCHutility 	50
scalar RSUExampleScenario.rsu[0].appl 	varDiffCHutility 	7.0710678118655
scalar RSUExampleScenario.rsu[0].appl 	expectedCHutility 	1698.7407076453
scalar RSUExampleScenario.rsu[0].appl 	meanExpectedCHutility 	50
scalar RSUExampleScenario.rsu[0].appl 	varExpectedCHutility 	7.0710678118655
