version 2
run statistic3-1410-20150325-09:37:45-22012
attr c 23
attr configname statistic3
attr datetime 20150325-09:37:45
attr experiment statistic3
attr inifile omnetpp.ini
attr iterationvars "$p=1/10, $c=23"
attr iterationvars2 "$p=1/10, $c=23, $repetition=10"
attr measurement "$p=1/10, $c=23"
attr network RSUExampleScenario
attr p 1/10
attr processid 22012
attr repetition 10
attr replication #10
attr resultdir results
attr runnumber 1410
attr seedset 1410

scalar . 	c 	23
scalar RSUExampleScenario.rsu[0].appl 	NumberofCH 	10
scalar RSUExampleScenario.rsu[0].appl 	NumberofON 	90
scalar RSUExampleScenario.rsu[0].appl 	NumberofFN 	0
scalar RSUExampleScenario.rsu[0].appl 	meanClusterNodes 	9
scalar RSUExampleScenario.rsu[0].appl 	varClusterNodes 	3.5777087639997
scalar RSUExampleScenario.rsu[0].appl 	sumCHutility 	372.64102690376
scalar RSUExampleScenario.rsu[0].appl 	meanCHutility 	37.264102690376
scalar RSUExampleScenario.rsu[0].appl 	varCHutility 	0.93783524611249
scalar RSUExampleScenario.rsu[0].appl 	sumDiffCHutility 	-31.1981785106
scalar RSUExampleScenario.rsu[0].appl 	meanDiffCHutility 	-3.11981785106
scalar RSUExampleScenario.rsu[0].appl 	varDiffCHutility 	0.8899418416093
scalar RSUExampleScenario.rsu[0].appl 	expectedCHutility 	341.44284839316
scalar RSUExampleScenario.rsu[0].appl 	meanExpectedCHutility 	34.144284839316
scalar RSUExampleScenario.rsu[0].appl 	varExpectedCHutility 	0.63508118238459
scalar RSUExampleScenario.node[0].veinsmobility 	startTime 	0.1
scalar RSUExampleScenario.node[0].veinsmobility 	totalTime 	349.9
scalar RSUExampleScenario.node[0].veinsmobility 	stopTime 	350
scalar RSUExampleScenario.node[0].veinsmobility 	minSpeed 	0
scalar RSUExampleScenario.node[0].veinsmobility 	maxSpeed 	13.999947285734
scalar RSUExampleScenario.node[0].veinsmobility 	totalDistance 	3131.4519803339
scalar RSUExampleScenario.node[0].veinsmobility 	totalCO2Emission 	738.0629737661
scalar RSUExampleScenario.node[1].veinsmobility 	startTime 	2.5
scalar RSUExampleScenario.node[1].veinsmobility 	totalTime 	347.5
scalar RSUExampleScenario.node[1].veinsmobility 	stopTime 	350
scalar RSUExampleScenario.node[1].veinsmobility 	minSpeed 	0
scalar RSUExampleScenario.node[1].veinsmobility 	maxSpeed 	13.999986547758
scalar RSUExampleScenario.node[1].veinsmobility 	totalDistance 	3080.0239937631
scalar RSUExampleScenario.node[1].veinsmobility 	totalCO2Emission 	729.94637797464
scalar RSUExampleScenario.node[10].veinsmobility 	startTime 	24.2
scalar RSUExampleScenario.node[10].veinsmobility 	totalTime 	325.8
scalar RSUExampleScenario.node[10].veinsmobility 	stopTime 	350
scalar RSUExampleScenario.node[10].veinsmobility 	minSpeed 	0
scalar RSUExampleScenario.node[10].veinsmobility 	maxSpeed 	13.999991880038
scalar RSUExampleScenario.node[10].veinsmobility 	totalDistance 	2788.8788430522
scalar RSUExampleScenario.node[10].veinsmobility 	totalCO2Emission 	661.63448369763
scalar RSUExampleScenario.node[11].veinsmobility 	startTime 	26.6
scalar RSUExampleScenario.node[11].veinsmobility 	totalTime 	323.4
scalar RSUExampleScenario.node[11].veinsmobility 	stopTime 	350
scalar RSUExampleScenario.node[11].veinsmobility 	minSpeed 	0
scalar RSUExampleScenario.node[11].veinsmobility 	maxSpeed 	13.999951505968
scalar RSUExampleScenario.node[11].veinsmobility 	totalDistance 	2755.3004250854
scalar RSUExampleScenario.node[11].veinsmobility 	totalCO2Emission 	655.48723380101
scalar RSUExampleScenario.node[12].veinsmobility 	startTime 	29
scalar RSUExampleScenario.node[12].veinsmobility 	totalTime 	321
scalar RSUExampleScenario.node[12].veinsmobility 	stopTime 	350
scalar RSUExampleScenario.node[12].veinsmobility 	minSpeed 	0
scalar RSUExampleScenario.node[12].veinsmobility 	maxSpeed 	13.999908222419
scalar RSUExampleScenario.node[12].veinsmobility 	totalDistance 	2717.5603591195
scalar RSUExampleScenario.node[12].veinsmobility 	totalCO2Emission 	650.59490197907
scalar RSUExampleScenario.node[13].veinsmobility 	startTime 	31.4
scalar RSUExampleScenario.node[13].veinsmobility 	totalTime 	318.6
scalar RSUExampleScenario.node[13].veinsmobility 	stopTime 	350
scalar RSUExampleScenario.node[13].veinsmobility 	minSpeed 	0
scalar RSUExampleScenario.node[13].veinsmobility 	maxSpeed 	13.999976235395
scalar RSUExampleScenario.node[13].veinsmobility 	totalDistance 	2684.2705650505
scalar RSUExampleScenario.node[13].veinsmobility 	totalCO2Emission 	642.61227515879
scalar RSUExampleScenario.node[14].veinsmobility 	startTime 	33.8
scalar RSUExampleScenario.node[14].veinsmobility 	totalTime 	316.2
scalar RSUExampleScenario.node[14].veinsmobility 	stopTime 	350
scalar RSUExampleScenario.node[14].veinsmobility 	minSpeed 	0
scalar RSUExampleScenario.node[14].veinsmobility 	maxSpeed 	13.999916487848
scalar RSUExampleScenario.node[14].veinsmobility 	totalDistance 	2647.273827988
scalar RSUExampleScenario.node[14].veinsmobility 	totalCO2Emission 	638.50760421017
scalar RSUExampleScenario.node[15].veinsmobility 	startTime 	36.2
scalar RSUExampleScenario.node[15].veinsmobility 	totalTime 	313.8
scalar RSUExampleScenario.node[15].veinsmobility 	stopTime 	350
scalar RSUExampleScenario.node[15].veinsmobility 	minSpeed 	0
scalar RSUExampleScenario.node[15].veinsmobility 	maxSpeed 	13.999982603204
scalar RSUExampleScenario.node[15].veinsmobility 	totalDistance 	2616.1383972674
scalar RSUExampleScenario.node[15].veinsmobility 	totalCO2Emission 	628.31497775454
scalar RSUExampleScenario.node[16].veinsmobility 	startTime 	38.6
scalar RSUExampleScenario.node[16].veinsmobility 	totalTime 	311.4
scalar RSUExampleScenario.node[16].veinsmobility 	stopTime 	350
scalar RSUExampleScenario.node[16].veinsmobility 	minSpeed 	0
scalar RSUExampleScenario.node[16].veinsmobility 	maxSpeed 	13.999958139712
scalar RSUExampleScenario.node[16].veinsmobility 	totalDistance 	2577.8416266332
scalar RSUExampleScenario.node[16].veinsmobility 	totalCO2Emission 	627.68634536596
scalar RSUExampleScenario.node[17].veinsmobility 	startTime 	41
scalar RSUExampleScenario.node[17].veinsmobility 	totalTime 	309
scalar RSUExampleScenario.node[17].veinsmobility 	stopTime 	350
scalar RSUExampleScenario.node[17].veinsmobility 	minSpeed 	0
scalar RSUExampleScenario.node[17].veinsmobility 	maxSpeed 	13.999878668578
scalar RSUExampleScenario.node[17].veinsmobility 	totalDistance 	2543.023114759
scalar RSUExampleScenario.node[17].veinsmobility 	totalCO2Emission 	619.52840626222
scalar RSUExampleScenario.node[18].veinsmobility 	startTime 	43.4
scalar RSUExampleScenario.node[18].veinsmobility 	totalTime 	306.6
scalar RSUExampleScenario.node[18].veinsmobility 	stopTime 	350
scalar RSUExampleScenario.node[18].veinsmobility 	minSpeed 	0
scalar RSUExampleScenario.node[18].veinsmobility 	maxSpeed 	13.999984630372
scalar RSUExampleScenario.node[18].veinsmobility 	totalDistance 	2504.3960420715
scalar RSUExampleScenario.node[18].veinsmobility 	totalCO2Emission 	615.48101731009
scalar RSUExampleScenario.node[19].veinsmobility 	startTime 	45.8
scalar RSUExampleScenario.node[19].veinsmobility 	totalTime 	304.2
scalar RSUExampleScenario.node[19].veinsmobility 	stopTime 	350
scalar RSUExampleScenario.node[19].veinsmobility 	minSpeed 	0
scalar RSUExampleScenario.node[19].veinsmobility 	maxSpeed 	13.999812996497
scalar RSUExampleScenario.node[19].veinsmobility 	totalDistance 	2473.070568853
scalar RSUExampleScenario.node[19].veinsmobility 	totalCO2Emission 	609.13841473494
scalar RSUExampleScenario.node[2].veinsmobility 	startTime 	4.9
scalar RSUExampleScenario.node[2].veinsmobility 	totalTime 	345.1
scalar RSUExampleScenario.node[2].veinsmobility 	stopTime 	350
scalar RSUExampleScenario.node[2].veinsmobility 	minSpeed 	0
scalar RSUExampleScenario.node[2].veinsmobility 	maxSpeed 	13.999919544219
scalar RSUExampleScenario.node[2].veinsmobility 	totalDistance 	3031.9236933374
scalar RSUExampleScenario.node[2].veinsmobility 	totalCO2Emission 	722.68809063765
scalar RSUExampleScenario.node[20].veinsmobility 	startTime 	48.3
scalar RSUExampleScenario.node[20].veinsmobility 	totalTime 	301.7
scalar RSUExampleScenario.node[20].veinsmobility 	stopTime 	350
scalar RSUExampleScenario.node[20].veinsmobility 	minSpeed 	0
scalar RSUExampleScenario.node[20].veinsmobility 	maxSpeed 	13.999954392111
scalar RSUExampleScenario.node[20].veinsmobility 	totalDistance 	2435.66078802
scalar RSUExampleScenario.node[20].veinsmobility 	totalCO2Emission 	604.03814335451
scalar RSUExampleScenario.node[21].veinsmobility 	startTime 	50.7
scalar RSUExampleScenario.node[21].veinsmobility 	totalTime 	299.3
scalar RSUExampleScenario.node[21].veinsmobility 	stopTime 	350
scalar RSUExampleScenario.node[21].veinsmobility 	minSpeed 	0
scalar RSUExampleScenario.node[21].veinsmobility 	maxSpeed 	13.999938364306
scalar RSUExampleScenario.node[21].veinsmobility 	totalDistance 	2406.7106233429
scalar RSUExampleScenario.node[21].veinsmobility 	totalCO2Emission 	597.82510100753
scalar RSUExampleScenario.node[22].veinsmobility 	startTime 	53.1
scalar RSUExampleScenario.node[22].veinsmobility 	totalTime 	296.9
scalar RSUExampleScenario.node[22].veinsmobility 	stopTime 	350
scalar RSUExampleScenario.node[22].veinsmobility 	minSpeed 	0
scalar RSUExampleScenario.node[22].veinsmobility 	maxSpeed 	13.999874816705
scalar RSUExampleScenario.node[22].veinsmobility 	totalDistance 	2366.9425293184
scalar RSUExampleScenario.node[22].veinsmobility 	totalCO2Emission 	592.3433291098
scalar RSUExampleScenario.node[23].veinsmobility 	startTime 	55.5
scalar RSUExampleScenario.node[23].veinsmobility 	totalTime 	294.5
scalar RSUExampleScenario.node[23].veinsmobility 	stopTime 	350
scalar RSUExampleScenario.node[23].veinsmobility 	minSpeed 	0
scalar RSUExampleScenario.node[23].veinsmobility 	maxSpeed 	13.999863299858
scalar RSUExampleScenario.node[23].veinsmobility 	totalDistance 	2338.1187198695
scalar RSUExampleScenario.node[23].veinsmobility 	totalCO2Emission 	585.15340163135
scalar RSUExampleScenario.node[24].veinsmobility 	startTime 	57.9
scalar RSUExampleScenario.node[24].veinsmobility 	totalTime 	292.1
scalar RSUExampleScenario.node[24].veinsmobility 	stopTime 	350
scalar RSUExampleScenario.node[24].veinsmobility 	minSpeed 	0
scalar RSUExampleScenario.node[24].veinsmobility 	maxSpeed 	13.999988742035
scalar RSUExampleScenario.node[24].veinsmobility 	totalDistance 	2300.1216187316
scalar RSUExampleScenario.node[24].veinsmobility 	totalCO2Emission 	579.11642968273
scalar RSUExampleScenario.node[25].veinsmobility 	startTime 	60.3
scalar RSUExampleScenario.node[25].veinsmobility 	totalTime 	289.7
scalar RSUExampleScenario.node[25].veinsmobility 	stopTime 	350
scalar RSUExampleScenario.node[25].veinsmobility 	minSpeed 	0
scalar RSUExampleScenario.node[25].veinsmobility 	maxSpeed 	13.999943241961
scalar RSUExampleScenario.node[25].veinsmobility 	totalDistance 	2272.1985711068
scalar RSUExampleScenario.node[25].veinsmobility 	totalCO2Emission 	571.25228105949
scalar RSUExampleScenario.node[26].veinsmobility 	startTime 	62.7
scalar RSUExampleScenario.node[26].veinsmobility 	totalTime 	287.3
scalar RSUExampleScenario.node[26].veinsmobility 	stopTime 	350
scalar RSUExampleScenario.node[26].veinsmobility 	minSpeed 	0
scalar RSUExampleScenario.node[26].veinsmobility 	maxSpeed 	13.999775194116
scalar RSUExampleScenario.node[26].veinsmobility 	totalDistance 	2233.6142083833
scalar RSUExampleScenario.node[26].veinsmobility 	totalCO2Emission 	569.97607249402
scalar RSUExampleScenario.node[27].veinsmobility 	startTime 	65.1
scalar RSUExampleScenario.node[27].veinsmobility 	totalTime 	284.9
scalar RSUExampleScenario.node[27].veinsmobility 	stopTime 	350
scalar RSUExampleScenario.node[27].veinsmobility 	minSpeed 	0
scalar RSUExampleScenario.node[27].veinsmobility 	maxSpeed 	13.99982388038
scalar RSUExampleScenario.node[27].veinsmobility 	totalDistance 	2204.0028267286
scalar RSUExampleScenario.node[27].veinsmobility 	totalCO2Emission 	563.29407400423
scalar RSUExampleScenario.node[28].veinsmobility 	startTime 	67.5
scalar RSUExampleScenario.node[28].veinsmobility 	totalTime 	282.5
scalar RSUExampleScenario.node[28].veinsmobility 	stopTime 	350
scalar RSUExampleScenario.node[28].veinsmobility 	minSpeed 	0
scalar RSUExampleScenario.node[28].veinsmobility 	maxSpeed 	13.999980560387
scalar RSUExampleScenario.node[28].veinsmobility 	totalDistance 	2168.3548018935
scalar RSUExampleScenario.node[28].veinsmobility 	totalCO2Emission 	559.41685942914
scalar RSUExampleScenario.node[29].veinsmobility 	startTime 	69.9
scalar RSUExampleScenario.node[29].veinsmobility 	totalTime 	280.1
scalar RSUExampleScenario.node[29].veinsmobility 	stopTime 	350
scalar RSUExampleScenario.node[29].veinsmobility 	minSpeed 	0
scalar RSUExampleScenario.node[29].veinsmobility 	maxSpeed 	13.999870474944
scalar RSUExampleScenario.node[29].veinsmobility 	totalDistance 	2133.0100509163
scalar RSUExampleScenario.node[29].veinsmobility 	totalCO2Emission 	553.4135199167
scalar RSUExampleScenario.node[3].veinsmobility 	startTime 	7.3
scalar RSUExampleScenario.node[3].veinsmobility 	totalTime 	342.7
scalar RSUExampleScenario.node[3].veinsmobility 	stopTime 	350
scalar RSUExampleScenario.node[3].veinsmobility 	minSpeed 	0
scalar RSUExampleScenario.node[3].veinsmobility 	maxSpeed 	13.99999706449
scalar RSUExampleScenario.node[3].veinsmobility 	totalDistance 	2994.8134665005
scalar RSUExampleScenario.node[3].veinsmobility 	totalCO2Emission 	712.45538759704
scalar RSUExampleScenario.node[30].veinsmobility 	startTime 	72.4
scalar RSUExampleScenario.node[30].veinsmobility 	totalTime 	277.6
scalar RSUExampleScenario.node[30].veinsmobility 	stopTime 	350
scalar RSUExampleScenario.node[30].veinsmobility 	minSpeed 	0
scalar RSUExampleScenario.node[30].veinsmobility 	maxSpeed 	13.999772315782
scalar RSUExampleScenario.node[30].veinsmobility 	totalDistance 	2097.2349865183
scalar RSUExampleScenario.node[30].veinsmobility 	totalCO2Emission 	548.05725794224
scalar RSUExampleScenario.node[31].veinsmobility 	startTime 	74.8
scalar RSUExampleScenario.node[31].veinsmobility 	totalTime 	275.2
scalar RSUExampleScenario.node[31].veinsmobility 	stopTime 	350
scalar RSUExampleScenario.node[31].veinsmobility 	minSpeed 	0
scalar RSUExampleScenario.node[31].veinsmobility 	maxSpeed 	13.999822088908
scalar RSUExampleScenario.node[31].veinsmobility 	totalDistance 	2068.1176435883
scalar RSUExampleScenario.node[31].veinsmobility 	totalCO2Emission 	543.64390045789
scalar RSUExampleScenario.node[32].veinsmobility 	startTime 	77.2
scalar RSUExampleScenario.node[32].veinsmobility 	totalTime 	272.8
scalar RSUExampleScenario.node[32].veinsmobility 	stopTime 	350
scalar RSUExampleScenario.node[32].veinsmobility 	minSpeed 	0
scalar RSUExampleScenario.node[32].veinsmobility 	maxSpeed 	13.999995772683
scalar RSUExampleScenario.node[32].veinsmobility 	totalDistance 	2032.194294655
scalar RSUExampleScenario.node[32].veinsmobility 	totalCO2Emission 	536.02304732698
scalar RSUExampleScenario.node[33].veinsmobility 	startTime 	79.6
scalar RSUExampleScenario.node[33].veinsmobility 	totalTime 	270.4
scalar RSUExampleScenario.node[33].veinsmobility 	stopTime 	350
scalar RSUExampleScenario.node[33].veinsmobility 	minSpeed 	0
scalar RSUExampleScenario.node[33].veinsmobility 	maxSpeed 	13.999913270483
scalar RSUExampleScenario.node[33].veinsmobility 	totalDistance 	1998.2082829666
scalar RSUExampleScenario.node[33].veinsmobility 	totalCO2Emission 	529.06315499214
scalar RSUExampleScenario.node[34].veinsmobility 	startTime 	82
scalar RSUExampleScenario.node[34].veinsmobility 	totalTime 	268
scalar RSUExampleScenario.node[34].veinsmobility 	stopTime 	350
scalar RSUExampleScenario.node[34].veinsmobility 	minSpeed 	0
scalar RSUExampleScenario.node[34].veinsmobility 	maxSpeed 	13.999981997935
scalar RSUExampleScenario.node[34].veinsmobility 	totalDistance 	1965.2529577131
scalar RSUExampleScenario.node[34].veinsmobility 	totalCO2Emission 	524.45633063182
scalar RSUExampleScenario.node[35].veinsmobility 	startTime 	84.4
scalar RSUExampleScenario.node[35].veinsmobility 	totalTime 	265.6
scalar RSUExampleScenario.node[35].veinsmobility 	stopTime 	350
scalar RSUExampleScenario.node[35].veinsmobility 	minSpeed 	0
scalar RSUExampleScenario.node[35].veinsmobility 	maxSpeed 	13.999986877679
scalar RSUExampleScenario.node[35].veinsmobility 	totalDistance 	1930.2982240844
scalar RSUExampleScenario.node[35].veinsmobility 	totalCO2Emission 	517.79604492895
scalar RSUExampleScenario.node[36].veinsmobility 	startTime 	86.8
scalar RSUExampleScenario.node[36].veinsmobility 	totalTime 	263.2
scalar RSUExampleScenario.node[36].veinsmobility 	stopTime 	350
scalar RSUExampleScenario.node[36].veinsmobility 	minSpeed 	0
scalar RSUExampleScenario.node[36].veinsmobility 	maxSpeed 	13.999984510178
scalar RSUExampleScenario.node[36].veinsmobility 	totalDistance 	1897.5303446035
scalar RSUExampleScenario.node[36].veinsmobility 	totalCO2Emission 	516.23978285083
scalar RSUExampleScenario.node[37].veinsmobility 	startTime 	89.2
scalar RSUExampleScenario.node[37].veinsmobility 	totalTime 	260.8
scalar RSUExampleScenario.node[37].veinsmobility 	stopTime 	350
scalar RSUExampleScenario.node[37].veinsmobility 	minSpeed 	0
scalar RSUExampleScenario.node[37].veinsmobility 	maxSpeed 	13.999779722751
scalar RSUExampleScenario.node[37].veinsmobility 	totalDistance 	1864.8647009519
scalar RSUExampleScenario.node[37].veinsmobility 	totalCO2Emission 	505.92299828581
scalar RSUExampleScenario.node[38].veinsmobility 	startTime 	91.6
scalar RSUExampleScenario.node[38].veinsmobility 	totalTime 	258.4
scalar RSUExampleScenario.node[38].veinsmobility 	stopTime 	350
scalar RSUExampleScenario.node[38].veinsmobility 	minSpeed 	0
scalar RSUExampleScenario.node[38].veinsmobility 	maxSpeed 	13.999837750441
scalar RSUExampleScenario.node[38].veinsmobility 	totalDistance 	1831.1893980366
scalar RSUExampleScenario.node[38].veinsmobility 	totalCO2Emission 	504.00824842397
scalar RSUExampleScenario.node[39].veinsmobility 	startTime 	94
scalar RSUExampleScenario.node[39].veinsmobility 	totalTime 	256
scalar RSUExampleScenario.node[39].veinsmobility 	stopTime 	350
scalar RSUExampleScenario.node[39].veinsmobility 	minSpeed 	0
scalar RSUExampleScenario.node[39].veinsmobility 	maxSpeed 	13.99986062662
scalar RSUExampleScenario.node[39].veinsmobility 	totalDistance 	1796.9982414876
scalar RSUExampleScenario.node[39].veinsmobility 	totalCO2Emission 	494.38814264734
scalar RSUExampleScenario.node[4].veinsmobility 	startTime 	9.7
scalar RSUExampleScenario.node[4].veinsmobility 	totalTime 	340.3
scalar RSUExampleScenario.node[4].veinsmobility 	stopTime 	350
scalar RSUExampleScenario.node[4].veinsmobility 	minSpeed 	0
scalar RSUExampleScenario.node[4].veinsmobility 	maxSpeed 	13.999989824267
scalar RSUExampleScenario.node[4].veinsmobility 	totalDistance 	2944.0205227308
scalar RSUExampleScenario.node[4].veinsmobility 	totalCO2Emission 	696.37264946271
scalar RSUExampleScenario.node[40].veinsmobility 	startTime 	96.5
scalar RSUExampleScenario.node[40].veinsmobility 	totalTime 	253.5
scalar RSUExampleScenario.node[40].veinsmobility 	stopTime 	350
scalar RSUExampleScenario.node[40].veinsmobility 	minSpeed 	0
scalar RSUExampleScenario.node[40].veinsmobility 	maxSpeed 	13.999752223743
scalar RSUExampleScenario.node[40].veinsmobility 	totalDistance 	1762.8660482844
scalar RSUExampleScenario.node[40].veinsmobility 	totalCO2Emission 	491.18627351553
scalar RSUExampleScenario.node[41].veinsmobility 	startTime 	98.9
scalar RSUExampleScenario.node[41].veinsmobility 	totalTime 	251.1
scalar RSUExampleScenario.node[41].veinsmobility 	stopTime 	350
scalar RSUExampleScenario.node[41].veinsmobility 	minSpeed 	0
scalar RSUExampleScenario.node[41].veinsmobility 	maxSpeed 	13.999891746223
scalar RSUExampleScenario.node[41].veinsmobility 	totalDistance 	1729.7686528762
scalar RSUExampleScenario.node[41].veinsmobility 	totalCO2Emission 	483.0882148356
scalar RSUExampleScenario.node[42].veinsmobility 	startTime 	101.3
scalar RSUExampleScenario.node[42].veinsmobility 	totalTime 	248.7
scalar RSUExampleScenario.node[42].veinsmobility 	stopTime 	350
scalar RSUExampleScenario.node[42].veinsmobility 	minSpeed 	0
scalar RSUExampleScenario.node[42].veinsmobility 	maxSpeed 	13.999895679033
scalar RSUExampleScenario.node[42].veinsmobility 	totalDistance 	1695.0851010854
scalar RSUExampleScenario.node[42].veinsmobility 	totalCO2Emission 	477.45142808981
scalar RSUExampleScenario.node[43].veinsmobility 	startTime 	103.7
scalar RSUExampleScenario.node[43].veinsmobility 	totalTime 	246.3
scalar RSUExampleScenario.node[43].veinsmobility 	stopTime 	350
scalar RSUExampleScenario.node[43].veinsmobility 	minSpeed 	0
scalar RSUExampleScenario.node[43].veinsmobility 	maxSpeed 	13.999976462526
scalar RSUExampleScenario.node[43].veinsmobility 	totalDistance 	1662.6696625399
scalar RSUExampleScenario.node[43].veinsmobility 	totalCO2Emission 	472.23330336239
scalar RSUExampleScenario.node[44].veinsmobility 	startTime 	106.1
scalar RSUExampleScenario.node[44].veinsmobility 	totalTime 	243.9
scalar RSUExampleScenario.node[44].veinsmobility 	stopTime 	350
scalar RSUExampleScenario.node[44].veinsmobility 	minSpeed 	0
scalar RSUExampleScenario.node[44].veinsmobility 	maxSpeed 	13.999881625639
scalar RSUExampleScenario.node[44].veinsmobility 	totalDistance 	1628.9554090579
scalar RSUExampleScenario.node[44].veinsmobility 	totalCO2Emission 	467.18666341275
scalar RSUExampleScenario.node[45].veinsmobility 	startTime 	108.5
scalar RSUExampleScenario.node[45].veinsmobility 	totalTime 	241.5
scalar RSUExampleScenario.node[45].veinsmobility 	stopTime 	350
scalar RSUExampleScenario.node[45].veinsmobility 	minSpeed 	0
scalar RSUExampleScenario.node[45].veinsmobility 	maxSpeed 	13.999740998498
scalar RSUExampleScenario.node[45].veinsmobility 	totalDistance 	1595.8249467133
scalar RSUExampleScenario.node[45].veinsmobility 	totalCO2Emission 	462.05941678045
scalar RSUExampleScenario.node[46].veinsmobility 	startTime 	110.9
scalar RSUExampleScenario.node[46].veinsmobility 	totalTime 	239.1
scalar RSUExampleScenario.node[46].veinsmobility 	stopTime 	350
scalar RSUExampleScenario.node[46].veinsmobility 	minSpeed 	0
scalar RSUExampleScenario.node[46].veinsmobility 	maxSpeed 	13.999997311658
scalar RSUExampleScenario.node[46].veinsmobility 	totalDistance 	1560.0724822168
scalar RSUExampleScenario.node[46].veinsmobility 	totalCO2Emission 	457.19790916023
scalar RSUExampleScenario.node[47].veinsmobility 	startTime 	113.3
scalar RSUExampleScenario.node[47].veinsmobility 	totalTime 	236.7
scalar RSUExampleScenario.node[47].veinsmobility 	stopTime 	350
scalar RSUExampleScenario.node[47].veinsmobility 	minSpeed 	0
scalar RSUExampleScenario.node[47].veinsmobility 	maxSpeed 	13.999937646016
scalar RSUExampleScenario.node[47].veinsmobility 	totalDistance 	1527.7526128815
scalar RSUExampleScenario.node[47].veinsmobility 	totalCO2Emission 	447.62929889648
scalar RSUExampleScenario.node[48].veinsmobility 	startTime 	115.7
scalar RSUExampleScenario.node[48].veinsmobility 	totalTime 	234.3
scalar RSUExampleScenario.node[48].veinsmobility 	stopTime 	350
scalar RSUExampleScenario.node[48].veinsmobility 	minSpeed 	0
scalar RSUExampleScenario.node[48].veinsmobility 	maxSpeed 	13.999945863471
scalar RSUExampleScenario.node[48].veinsmobility 	totalDistance 	1493.2163183974
scalar RSUExampleScenario.node[48].veinsmobility 	totalCO2Emission 	446.03290884711
scalar RSUExampleScenario.node[49].veinsmobility 	startTime 	118.1
scalar RSUExampleScenario.node[49].veinsmobility 	totalTime 	231.9
scalar RSUExampleScenario.node[49].veinsmobility 	stopTime 	350
scalar RSUExampleScenario.node[49].veinsmobility 	minSpeed 	0
scalar RSUExampleScenario.node[49].veinsmobility 	maxSpeed 	13.99981561162
scalar RSUExampleScenario.node[49].veinsmobility 	totalDistance 	1459.3708336945
scalar RSUExampleScenario.node[49].veinsmobility 	totalCO2Emission 	436.47750630682
scalar RSUExampleScenario.node[5].veinsmobility 	startTime 	12.1
scalar RSUExampleScenario.node[5].veinsmobility 	totalTime 	337.9
scalar RSUExampleScenario.node[5].veinsmobility 	stopTime 	350
scalar RSUExampleScenario.node[5].veinsmobility 	minSpeed 	0
scalar RSUExampleScenario.node[5].veinsmobility 	maxSpeed 	13.999891362698
scalar RSUExampleScenario.node[5].veinsmobility 	totalDistance 	2917.9145902465
scalar RSUExampleScenario.node[5].veinsmobility 	totalCO2Emission 	681.0713962516
scalar RSUExampleScenario.node[50].veinsmobility 	startTime 	120.6
scalar RSUExampleScenario.node[50].veinsmobility 	totalTime 	229.4
scalar RSUExampleScenario.node[50].veinsmobility 	stopTime 	350
scalar RSUExampleScenario.node[50].veinsmobility 	minSpeed 	0
scalar RSUExampleScenario.node[50].veinsmobility 	maxSpeed 	13.999906511158
scalar RSUExampleScenario.node[50].veinsmobility 	totalDistance 	1426.1427816908
scalar RSUExampleScenario.node[50].veinsmobility 	totalCO2Emission 	432.10565320977
scalar RSUExampleScenario.node[51].veinsmobility 	startTime 	123
scalar RSUExampleScenario.node[51].veinsmobility 	totalTime 	227
scalar RSUExampleScenario.node[51].veinsmobility 	stopTime 	350
scalar RSUExampleScenario.node[51].veinsmobility 	minSpeed 	0
scalar RSUExampleScenario.node[51].veinsmobility 	maxSpeed 	13.999904772323
scalar RSUExampleScenario.node[51].veinsmobility 	totalDistance 	1393.1861626983
scalar RSUExampleScenario.node[51].veinsmobility 	totalCO2Emission 	424.50998898659
scalar RSUExampleScenario.node[52].veinsmobility 	startTime 	125.4
scalar RSUExampleScenario.node[52].veinsmobility 	totalTime 	224.6
scalar RSUExampleScenario.node[52].veinsmobility 	stopTime 	350
scalar RSUExampleScenario.node[52].veinsmobility 	minSpeed 	0
scalar RSUExampleScenario.node[52].veinsmobility 	maxSpeed 	13.999951876358
scalar RSUExampleScenario.node[52].veinsmobility 	totalDistance 	1358.6025202908
scalar RSUExampleScenario.node[52].veinsmobility 	totalCO2Emission 	420.47971976452
scalar RSUExampleScenario.node[53].veinsmobility 	startTime 	127.8
scalar RSUExampleScenario.node[53].veinsmobility 	totalTime 	222.2
scalar RSUExampleScenario.node[53].veinsmobility 	stopTime 	350
scalar RSUExampleScenario.node[53].veinsmobility 	minSpeed 	0
scalar RSUExampleScenario.node[53].veinsmobility 	maxSpeed 	13.999826205142
scalar RSUExampleScenario.node[53].veinsmobility 	totalDistance 	1326.6217329269
scalar RSUExampleScenario.node[53].veinsmobility 	totalCO2Emission 	415.33923319173
scalar RSUExampleScenario.node[54].veinsmobility 	startTime 	130.2
scalar RSUExampleScenario.node[54].veinsmobility 	totalTime 	219.8
scalar RSUExampleScenario.node[54].veinsmobility 	stopTime 	350
scalar RSUExampleScenario.node[54].veinsmobility 	minSpeed 	0
scalar RSUExampleScenario.node[54].veinsmobility 	maxSpeed 	13.99994714411
scalar RSUExampleScenario.node[54].veinsmobility 	totalDistance 	1292.0445858016
scalar RSUExampleScenario.node[54].veinsmobility 	totalCO2Emission 	411.98582817593
scalar RSUExampleScenario.node[55].veinsmobility 	startTime 	132.6
scalar RSUExampleScenario.node[55].veinsmobility 	totalTime 	217.4
scalar RSUExampleScenario.node[55].veinsmobility 	stopTime 	350
scalar RSUExampleScenario.node[55].veinsmobility 	minSpeed 	0
scalar RSUExampleScenario.node[55].veinsmobility 	maxSpeed 	13.999891854825
scalar RSUExampleScenario.node[55].veinsmobility 	totalDistance 	1260.0461962281
scalar RSUExampleScenario.node[55].veinsmobility 	totalCO2Emission 	405.51717268767
scalar RSUExampleScenario.node[56].veinsmobility 	startTime 	135
scalar RSUExampleScenario.node[56].veinsmobility 	totalTime 	215
scalar RSUExampleScenario.node[56].veinsmobility 	stopTime 	350
scalar RSUExampleScenario.node[56].veinsmobility 	minSpeed 	0
scalar RSUExampleScenario.node[56].veinsmobility 	maxSpeed 	13.999664063428
scalar RSUExampleScenario.node[56].veinsmobility 	totalDistance 	1225.7076262485
scalar RSUExampleScenario.node[56].veinsmobility 	totalCO2Emission 	396.87517569091
scalar RSUExampleScenario.node[57].veinsmobility 	startTime 	137.4
scalar RSUExampleScenario.node[57].veinsmobility 	totalTime 	212.6
scalar RSUExampleScenario.node[57].veinsmobility 	stopTime 	350
scalar RSUExampleScenario.node[57].veinsmobility 	minSpeed 	0
scalar RSUExampleScenario.node[57].veinsmobility 	maxSpeed 	13.999642072376
scalar RSUExampleScenario.node[57].veinsmobility 	totalDistance 	1193.7550291841
scalar RSUExampleScenario.node[57].veinsmobility 	totalCO2Emission 	394.65428062137
scalar RSUExampleScenario.node[58].veinsmobility 	startTime 	139.8
scalar RSUExampleScenario.node[58].veinsmobility 	totalTime 	210.2
scalar RSUExampleScenario.node[58].veinsmobility 	stopTime 	350
scalar RSUExampleScenario.node[58].veinsmobility 	minSpeed 	0
scalar RSUExampleScenario.node[58].veinsmobility 	maxSpeed 	13.999865809376
scalar RSUExampleScenario.node[58].veinsmobility 	totalDistance 	1158.2279418265
scalar RSUExampleScenario.node[58].veinsmobility 	totalCO2Emission 	391.58337281413
scalar RSUExampleScenario.node[59].veinsmobility 	startTime 	142.2
scalar RSUExampleScenario.node[59].veinsmobility 	totalTime 	207.8
scalar RSUExampleScenario.node[59].veinsmobility 	stopTime 	350
scalar RSUExampleScenario.node[59].veinsmobility 	minSpeed 	0
scalar RSUExampleScenario.node[59].veinsmobility 	maxSpeed 	13.999954118186
scalar RSUExampleScenario.node[59].veinsmobility 	totalDistance 	1124.9036804233
scalar RSUExampleScenario.node[59].veinsmobility 	totalCO2Emission 	382.87716443458
scalar RSUExampleScenario.node[6].veinsmobility 	startTime 	14.5
scalar RSUExampleScenario.node[6].veinsmobility 	totalTime 	335.5
scalar RSUExampleScenario.node[6].veinsmobility 	stopTime 	350
scalar RSUExampleScenario.node[6].veinsmobility 	minSpeed 	0
scalar RSUExampleScenario.node[6].veinsmobility 	maxSpeed 	13.999977546392
scalar RSUExampleScenario.node[6].veinsmobility 	totalDistance 	2901.2611717895
scalar RSUExampleScenario.node[6].veinsmobility 	totalCO2Emission 	678.49338821172
scalar RSUExampleScenario.node[60].veinsmobility 	startTime 	144.7
scalar RSUExampleScenario.node[60].veinsmobility 	totalTime 	205.3
scalar RSUExampleScenario.node[60].veinsmobility 	stopTime 	350
scalar RSUExampleScenario.node[60].veinsmobility 	minSpeed 	0
scalar RSUExampleScenario.node[60].veinsmobility 	maxSpeed 	13.999933845296
scalar RSUExampleScenario.node[60].veinsmobility 	totalDistance 	1093.3077442607
scalar RSUExampleScenario.node[60].veinsmobility 	totalCO2Emission 	376.30778822867
scalar RSUExampleScenario.node[61].veinsmobility 	startTime 	147.1
scalar RSUExampleScenario.node[61].veinsmobility 	totalTime 	202.9
scalar RSUExampleScenario.node[61].veinsmobility 	stopTime 	350
scalar RSUExampleScenario.node[61].veinsmobility 	minSpeed 	0
scalar RSUExampleScenario.node[61].veinsmobility 	maxSpeed 	13.99993895096
scalar RSUExampleScenario.node[61].veinsmobility 	totalDistance 	1058.3418935806
scalar RSUExampleScenario.node[61].veinsmobility 	totalCO2Emission 	369.51975735262
scalar RSUExampleScenario.node[62].veinsmobility 	startTime 	149.5
scalar RSUExampleScenario.node[62].veinsmobility 	totalTime 	200.5
scalar RSUExampleScenario.node[62].veinsmobility 	stopTime 	350
scalar RSUExampleScenario.node[62].veinsmobility 	minSpeed 	0
scalar RSUExampleScenario.node[62].veinsmobility 	maxSpeed 	13.999628599733
scalar RSUExampleScenario.node[62].veinsmobility 	totalDistance 	1024.6411743145
scalar RSUExampleScenario.node[62].veinsmobility 	totalCO2Emission 	366.49820808924
scalar RSUExampleScenario.node[63].veinsmobility 	startTime 	151.9
scalar RSUExampleScenario.node[63].veinsmobility 	totalTime 	198.1
scalar RSUExampleScenario.node[63].veinsmobility 	stopTime 	350
scalar RSUExampleScenario.node[63].veinsmobility 	minSpeed 	0
scalar RSUExampleScenario.node[63].veinsmobility 	maxSpeed 	13.99971453629
scalar RSUExampleScenario.node[63].veinsmobility 	totalDistance 	985.63784042255
scalar RSUExampleScenario.node[63].veinsmobility 	totalCO2Emission 	355.15881364726
scalar RSUExampleScenario.node[64].veinsmobility 	startTime 	154.3
scalar RSUExampleScenario.node[64].veinsmobility 	totalTime 	195.7
scalar RSUExampleScenario.node[64].veinsmobility 	stopTime 	350
scalar RSUExampleScenario.node[64].veinsmobility 	minSpeed 	0
scalar RSUExampleScenario.node[64].veinsmobility 	maxSpeed 	13.999976138659
scalar RSUExampleScenario.node[64].veinsmobility 	totalDistance 	954.86985016892
scalar RSUExampleScenario.node[64].veinsmobility 	totalCO2Emission 	337.92261978506
scalar RSUExampleScenario.node[65].veinsmobility 	startTime 	156.7
scalar RSUExampleScenario.node[65].veinsmobility 	totalTime 	193.3
scalar RSUExampleScenario.node[65].veinsmobility 	stopTime 	350
scalar RSUExampleScenario.node[65].veinsmobility 	minSpeed 	0
scalar RSUExampleScenario.node[65].veinsmobility 	maxSpeed 	13.999774064727
scalar RSUExampleScenario.node[65].veinsmobility 	totalDistance 	940.6638707185
scalar RSUExampleScenario.node[65].veinsmobility 	totalCO2Emission 	329.8551198109
scalar RSUExampleScenario.node[66].veinsmobility 	startTime 	159.1
scalar RSUExampleScenario.node[66].veinsmobility 	totalTime 	190.9
scalar RSUExampleScenario.node[66].veinsmobility 	stopTime 	350
scalar RSUExampleScenario.node[66].veinsmobility 	minSpeed 	0
scalar RSUExampleScenario.node[66].veinsmobility 	maxSpeed 	13.999949892836
scalar RSUExampleScenario.node[66].veinsmobility 	totalDistance 	928.40904091549
scalar RSUExampleScenario.node[66].veinsmobility 	totalCO2Emission 	329.0408395723
scalar RSUExampleScenario.node[67].veinsmobility 	startTime 	161.5
scalar RSUExampleScenario.node[67].veinsmobility 	totalTime 	188.5
scalar RSUExampleScenario.node[67].veinsmobility 	stopTime 	350
scalar RSUExampleScenario.node[67].veinsmobility 	minSpeed 	0
scalar RSUExampleScenario.node[67].veinsmobility 	maxSpeed 	13.999869063578
scalar RSUExampleScenario.node[67].veinsmobility 	totalDistance 	913.08989463796
scalar RSUExampleScenario.node[67].veinsmobility 	totalCO2Emission 	324.51096858403
scalar RSUExampleScenario.node[68].veinsmobility 	startTime 	163.9
scalar RSUExampleScenario.node[68].veinsmobility 	totalTime 	186.1
scalar RSUExampleScenario.node[68].veinsmobility 	stopTime 	350
scalar RSUExampleScenario.node[68].veinsmobility 	minSpeed 	0
scalar RSUExampleScenario.node[68].veinsmobility 	maxSpeed 	13.999815399048
scalar RSUExampleScenario.node[68].veinsmobility 	totalDistance 	893.88716489346
scalar RSUExampleScenario.node[68].veinsmobility 	totalCO2Emission 	321.56599171822
scalar RSUExampleScenario.node[69].veinsmobility 	startTime 	166.3
scalar RSUExampleScenario.node[69].veinsmobility 	totalTime 	183.7
scalar RSUExampleScenario.node[69].veinsmobility 	stopTime 	350
scalar RSUExampleScenario.node[69].veinsmobility 	minSpeed 	0
scalar RSUExampleScenario.node[69].veinsmobility 	maxSpeed 	13.999509760244
scalar RSUExampleScenario.node[69].veinsmobility 	totalDistance 	857.39786541539
scalar RSUExampleScenario.node[69].veinsmobility 	totalCO2Emission 	315.20705733735
scalar RSUExampleScenario.node[7].veinsmobility 	startTime 	16.9
scalar RSUExampleScenario.node[7].veinsmobility 	totalTime 	333.1
scalar RSUExampleScenario.node[7].veinsmobility 	stopTime 	350
scalar RSUExampleScenario.node[7].veinsmobility 	minSpeed 	0
scalar RSUExampleScenario.node[7].veinsmobility 	maxSpeed 	13.999958930069
scalar RSUExampleScenario.node[7].veinsmobility 	totalDistance 	2889.0593103668
scalar RSUExampleScenario.node[7].veinsmobility 	totalCO2Emission 	676.31719695375
scalar RSUExampleScenario.node[70].veinsmobility 	startTime 	168.8
scalar RSUExampleScenario.node[70].veinsmobility 	totalTime 	181.2
scalar RSUExampleScenario.node[70].veinsmobility 	stopTime 	350
scalar RSUExampleScenario.node[70].veinsmobility 	minSpeed 	0
scalar RSUExampleScenario.node[70].veinsmobility 	maxSpeed 	13.999805645009
scalar RSUExampleScenario.node[70].veinsmobility 	totalDistance 	824.48577796627
scalar RSUExampleScenario.node[70].veinsmobility 	totalCO2Emission 	310.4964360236
scalar RSUExampleScenario.node[71].veinsmobility 	startTime 	171.2
scalar RSUExampleScenario.node[71].veinsmobility 	totalTime 	178.8
scalar RSUExampleScenario.node[71].veinsmobility 	stopTime 	350
scalar RSUExampleScenario.node[71].veinsmobility 	minSpeed 	0
scalar RSUExampleScenario.node[71].veinsmobility 	maxSpeed 	13.999784096808
scalar RSUExampleScenario.node[71].veinsmobility 	totalDistance 	792.52466891095
scalar RSUExampleScenario.node[71].veinsmobility 	totalCO2Emission 	304.51088414442
scalar RSUExampleScenario.node[72].veinsmobility 	startTime 	173.6
scalar RSUExampleScenario.node[72].veinsmobility 	totalTime 	176.4
scalar RSUExampleScenario.node[72].veinsmobility 	stopTime 	350
scalar RSUExampleScenario.node[72].veinsmobility 	minSpeed 	0
scalar RSUExampleScenario.node[72].veinsmobility 	maxSpeed 	13.999745235168
scalar RSUExampleScenario.node[72].veinsmobility 	totalDistance 	758.59565595235
scalar RSUExampleScenario.node[72].veinsmobility 	totalCO2Emission 	299.01346311133
scalar RSUExampleScenario.node[73].veinsmobility 	startTime 	176
scalar RSUExampleScenario.node[73].veinsmobility 	totalTime 	174
scalar RSUExampleScenario.node[73].veinsmobility 	stopTime 	350
scalar RSUExampleScenario.node[73].veinsmobility 	minSpeed 	0
scalar RSUExampleScenario.node[73].veinsmobility 	maxSpeed 	13.999128417762
scalar RSUExampleScenario.node[73].veinsmobility 	totalDistance 	725.45918161374
scalar RSUExampleScenario.node[73].veinsmobility 	totalCO2Emission 	293.81688611204
scalar RSUExampleScenario.node[74].veinsmobility 	startTime 	178.4
scalar RSUExampleScenario.node[74].veinsmobility 	totalTime 	171.6
scalar RSUExampleScenario.node[74].veinsmobility 	stopTime 	350
scalar RSUExampleScenario.node[74].veinsmobility 	minSpeed 	0
scalar RSUExampleScenario.node[74].veinsmobility 	maxSpeed 	13.998339808148
scalar RSUExampleScenario.node[74].veinsmobility 	totalDistance 	691.88870899302
scalar RSUExampleScenario.node[74].veinsmobility 	totalCO2Emission 	288.72655053713
scalar RSUExampleScenario.node[75].veinsmobility 	startTime 	180.8
scalar RSUExampleScenario.node[75].veinsmobility 	totalTime 	169.2
scalar RSUExampleScenario.node[75].veinsmobility 	stopTime 	350
scalar RSUExampleScenario.node[75].veinsmobility 	minSpeed 	0
scalar RSUExampleScenario.node[75].veinsmobility 	maxSpeed 	13.999867190626
scalar RSUExampleScenario.node[75].veinsmobility 	totalDistance 	658.34424287864
scalar RSUExampleScenario.node[75].veinsmobility 	totalCO2Emission 	281.66365028506
scalar RSUExampleScenario.node[76].veinsmobility 	startTime 	183.2
scalar RSUExampleScenario.node[76].veinsmobility 	totalTime 	166.8
scalar RSUExampleScenario.node[76].veinsmobility 	stopTime 	350
scalar RSUExampleScenario.node[76].veinsmobility 	minSpeed 	0
scalar RSUExampleScenario.node[76].veinsmobility 	maxSpeed 	13.999685705884
scalar RSUExampleScenario.node[76].veinsmobility 	totalDistance 	625.10762749458
scalar RSUExampleScenario.node[76].veinsmobility 	totalCO2Emission 	277.01607686698
scalar RSUExampleScenario.node[77].veinsmobility 	startTime 	185.6
scalar RSUExampleScenario.node[77].veinsmobility 	totalTime 	164.4
scalar RSUExampleScenario.node[77].veinsmobility 	stopTime 	350
scalar RSUExampleScenario.node[77].veinsmobility 	minSpeed 	0
scalar RSUExampleScenario.node[77].veinsmobility 	maxSpeed 	13.999308475277
scalar RSUExampleScenario.node[77].veinsmobility 	totalDistance 	590.70819244254
scalar RSUExampleScenario.node[77].veinsmobility 	totalCO2Emission 	270.46574354636
scalar RSUExampleScenario.node[78].veinsmobility 	startTime 	188
scalar RSUExampleScenario.node[78].veinsmobility 	totalTime 	162
scalar RSUExampleScenario.node[78].veinsmobility 	stopTime 	350
scalar RSUExampleScenario.node[78].veinsmobility 	minSpeed 	0
scalar RSUExampleScenario.node[78].veinsmobility 	maxSpeed 	13.999081756759
scalar RSUExampleScenario.node[78].veinsmobility 	totalDistance 	556.54510980439
scalar RSUExampleScenario.node[78].veinsmobility 	totalCO2Emission 	264.70609842424
scalar RSUExampleScenario.node[79].veinsmobility 	startTime 	190.4
scalar RSUExampleScenario.node[79].veinsmobility 	totalTime 	159.6
scalar RSUExampleScenario.node[79].veinsmobility 	stopTime 	350
scalar RSUExampleScenario.node[79].veinsmobility 	minSpeed 	0
scalar RSUExampleScenario.node[79].veinsmobility 	maxSpeed 	13.999267425293
scalar RSUExampleScenario.node[79].veinsmobility 	totalDistance 	523.40260311942
scalar RSUExampleScenario.node[79].veinsmobility 	totalCO2Emission 	259.59874252908
scalar RSUExampleScenario.node[8].veinsmobility 	startTime 	19.3
scalar RSUExampleScenario.node[8].veinsmobility 	totalTime 	330.7
scalar RSUExampleScenario.node[8].veinsmobility 	stopTime 	350
scalar RSUExampleScenario.node[8].veinsmobility 	minSpeed 	0
scalar RSUExampleScenario.node[8].veinsmobility 	maxSpeed 	13.999948652757
scalar RSUExampleScenario.node[8].veinsmobility 	totalDistance 	2855.9543499564
scalar RSUExampleScenario.node[8].veinsmobility 	totalCO2Emission 	671.19305239373
scalar RSUExampleScenario.node[80].veinsmobility 	startTime 	192.9
scalar RSUExampleScenario.node[80].veinsmobility 	totalTime 	157.1
scalar RSUExampleScenario.node[80].veinsmobility 	stopTime 	350
scalar RSUExampleScenario.node[80].veinsmobility 	minSpeed 	0
scalar RSUExampleScenario.node[80].veinsmobility 	maxSpeed 	13.999647600581
scalar RSUExampleScenario.node[80].veinsmobility 	totalDistance 	490.23034178754
scalar RSUExampleScenario.node[80].veinsmobility 	totalCO2Emission 	255.3220457102
scalar RSUExampleScenario.node[81].veinsmobility 	startTime 	195.3
scalar RSUExampleScenario.node[81].veinsmobility 	totalTime 	154.7
scalar RSUExampleScenario.node[81].veinsmobility 	stopTime 	350
scalar RSUExampleScenario.node[81].veinsmobility 	minSpeed 	0
scalar RSUExampleScenario.node[81].veinsmobility 	maxSpeed 	13.99973908995
scalar RSUExampleScenario.node[81].veinsmobility 	totalDistance 	457.04946083021
scalar RSUExampleScenario.node[81].veinsmobility 	totalCO2Emission 	248.3592730332
scalar RSUExampleScenario.node[82].veinsmobility 	startTime 	197.7
scalar RSUExampleScenario.node[82].veinsmobility 	totalTime 	152.3
scalar RSUExampleScenario.node[82].veinsmobility 	stopTime 	350
scalar RSUExampleScenario.node[82].veinsmobility 	minSpeed 	0
scalar RSUExampleScenario.node[82].veinsmobility 	maxSpeed 	13.99884848837
scalar RSUExampleScenario.node[82].veinsmobility 	totalDistance 	421.72613405261
scalar RSUExampleScenario.node[82].veinsmobility 	totalCO2Emission 	241.88675926869
scalar RSUExampleScenario.node[83].veinsmobility 	startTime 	200.1
scalar RSUExampleScenario.node[83].veinsmobility 	totalTime 	149.9
scalar RSUExampleScenario.node[83].veinsmobility 	stopTime 	350
scalar RSUExampleScenario.node[83].veinsmobility 	minSpeed 	0
scalar RSUExampleScenario.node[83].veinsmobility 	maxSpeed 	13.999377730906
scalar RSUExampleScenario.node[83].veinsmobility 	totalDistance 	388.05105164343
scalar RSUExampleScenario.node[83].veinsmobility 	totalCO2Emission 	236.08488253554
scalar RSUExampleScenario.node[84].veinsmobility 	startTime 	202.5
scalar RSUExampleScenario.node[84].veinsmobility 	totalTime 	147.5
scalar RSUExampleScenario.node[84].veinsmobility 	stopTime 	350
scalar RSUExampleScenario.node[84].veinsmobility 	minSpeed 	0
scalar RSUExampleScenario.node[84].veinsmobility 	maxSpeed 	13.998294384743
scalar RSUExampleScenario.node[84].veinsmobility 	totalDistance 	355.31819736133
scalar RSUExampleScenario.node[84].veinsmobility 	totalCO2Emission 	231.19991121154
scalar RSUExampleScenario.node[85].veinsmobility 	startTime 	204.9
scalar RSUExampleScenario.node[85].veinsmobility 	totalTime 	145.1
scalar RSUExampleScenario.node[85].veinsmobility 	stopTime 	350
scalar RSUExampleScenario.node[85].veinsmobility 	minSpeed 	0
scalar RSUExampleScenario.node[85].veinsmobility 	maxSpeed 	13.997421818129
scalar RSUExampleScenario.node[85].veinsmobility 	totalDistance 	322.86344264393
scalar RSUExampleScenario.node[85].veinsmobility 	totalCO2Emission 	225.52970505671
scalar RSUExampleScenario.node[86].veinsmobility 	startTime 	207.3
scalar RSUExampleScenario.node[86].veinsmobility 	totalTime 	142.7
scalar RSUExampleScenario.node[86].veinsmobility 	stopTime 	350
scalar RSUExampleScenario.node[86].veinsmobility 	minSpeed 	0
scalar RSUExampleScenario.node[86].veinsmobility 	maxSpeed 	13.715317111706
scalar RSUExampleScenario.node[86].veinsmobility 	totalDistance 	287.73476949858
scalar RSUExampleScenario.node[86].veinsmobility 	totalCO2Emission 	218.5558777254
scalar RSUExampleScenario.node[87].veinsmobility 	startTime 	209.7
scalar RSUExampleScenario.node[87].veinsmobility 	totalTime 	140.3
scalar RSUExampleScenario.node[87].veinsmobility 	stopTime 	350
scalar RSUExampleScenario.node[87].veinsmobility 	minSpeed 	0
scalar RSUExampleScenario.node[87].veinsmobility 	maxSpeed 	13.770717889723
scalar RSUExampleScenario.node[87].veinsmobility 	totalDistance 	248.54492212016
scalar RSUExampleScenario.node[87].veinsmobility 	totalCO2Emission 	200.97025514058
scalar RSUExampleScenario.node[88].veinsmobility 	startTime 	212.1
scalar RSUExampleScenario.node[88].veinsmobility 	totalTime 	137.9
scalar RSUExampleScenario.node[88].veinsmobility 	stopTime 	350
scalar RSUExampleScenario.node[88].veinsmobility 	minSpeed 	0
scalar RSUExampleScenario.node[88].veinsmobility 	maxSpeed 	13.802891084303
scalar RSUExampleScenario.node[88].veinsmobility 	totalDistance 	226.14448663702
scalar RSUExampleScenario.node[88].veinsmobility 	totalCO2Emission 	189.60326811723
scalar RSUExampleScenario.node[89].veinsmobility 	startTime 	214.5
scalar RSUExampleScenario.node[89].veinsmobility 	totalTime 	135.5
scalar RSUExampleScenario.node[89].veinsmobility 	stopTime 	350
scalar RSUExampleScenario.node[89].veinsmobility 	minSpeed 	0
scalar RSUExampleScenario.node[89].veinsmobility 	maxSpeed 	13.885908658395
scalar RSUExampleScenario.node[89].veinsmobility 	totalDistance 	215.53517154245
scalar RSUExampleScenario.node[89].veinsmobility 	totalCO2Emission 	186.17064261898
scalar RSUExampleScenario.node[9].veinsmobility 	startTime 	21.7
scalar RSUExampleScenario.node[9].veinsmobility 	totalTime 	328.3
scalar RSUExampleScenario.node[9].veinsmobility 	stopTime 	350
scalar RSUExampleScenario.node[9].veinsmobility 	minSpeed 	0
scalar RSUExampleScenario.node[9].veinsmobility 	maxSpeed 	13.999986044976
scalar RSUExampleScenario.node[9].veinsmobility 	totalDistance 	2826.339306639
scalar RSUExampleScenario.node[9].veinsmobility 	totalCO2Emission 	670.54568839333
scalar RSUExampleScenario.node[90].veinsmobility 	startTime 	217
scalar RSUExampleScenario.node[90].veinsmobility 	totalTime 	133
scalar RSUExampleScenario.node[90].veinsmobility 	stopTime 	350
scalar RSUExampleScenario.node[90].veinsmobility 	minSpeed 	0
scalar RSUExampleScenario.node[90].veinsmobility 	maxSpeed 	13.858337624103
scalar RSUExampleScenario.node[90].veinsmobility 	totalDistance 	202.01520891198
scalar RSUExampleScenario.node[90].veinsmobility 	totalCO2Emission 	183.03729537322
scalar RSUExampleScenario.node[91].veinsmobility 	startTime 	219.4
scalar RSUExampleScenario.node[91].veinsmobility 	totalTime 	130.6
scalar RSUExampleScenario.node[91].veinsmobility 	stopTime 	350
scalar RSUExampleScenario.node[91].veinsmobility 	minSpeed 	0
scalar RSUExampleScenario.node[91].veinsmobility 	maxSpeed 	13.866688147429
scalar RSUExampleScenario.node[91].veinsmobility 	totalDistance 	185.69217858352
scalar RSUExampleScenario.node[91].veinsmobility 	totalCO2Emission 	180.5176681003
scalar RSUExampleScenario.node[92].veinsmobility 	startTime 	221.8
scalar RSUExampleScenario.node[92].veinsmobility 	totalTime 	128.2
scalar RSUExampleScenario.node[92].veinsmobility 	stopTime 	350
scalar RSUExampleScenario.node[92].veinsmobility 	minSpeed 	0
scalar RSUExampleScenario.node[92].veinsmobility 	maxSpeed 	13.807439119878
scalar RSUExampleScenario.node[92].veinsmobility 	totalDistance 	150.91215266638
scalar RSUExampleScenario.node[92].veinsmobility 	totalCO2Emission 	166.62040548103
scalar RSUExampleScenario.node[93].veinsmobility 	startTime 	224.2
scalar RSUExampleScenario.node[93].veinsmobility 	totalTime 	125.8
scalar RSUExampleScenario.node[93].veinsmobility 	stopTime 	350
scalar RSUExampleScenario.node[93].veinsmobility 	minSpeed 	0
scalar RSUExampleScenario.node[93].veinsmobility 	maxSpeed 	13.889824868054
scalar RSUExampleScenario.node[93].veinsmobility 	totalDistance 	123.76830473023
scalar RSUExampleScenario.node[93].veinsmobility 	totalCO2Emission 	154.27346662238
scalar RSUExampleScenario.node[94].veinsmobility 	startTime 	226.6
scalar RSUExampleScenario.node[94].veinsmobility 	totalTime 	123.4
scalar RSUExampleScenario.node[94].veinsmobility 	stopTime 	350
scalar RSUExampleScenario.node[94].veinsmobility 	minSpeed 	0
scalar RSUExampleScenario.node[94].veinsmobility 	maxSpeed 	13.847642374714
scalar RSUExampleScenario.node[94].veinsmobility 	totalDistance 	112.34238169492
scalar RSUExampleScenario.node[94].veinsmobility 	totalCO2Emission 	148.37272982366
scalar RSUExampleScenario.node[95].veinsmobility 	startTime 	229
scalar RSUExampleScenario.node[95].veinsmobility 	totalTime 	121
scalar RSUExampleScenario.node[95].veinsmobility 	stopTime 	350
scalar RSUExampleScenario.node[95].veinsmobility 	minSpeed 	0
scalar RSUExampleScenario.node[95].veinsmobility 	maxSpeed 	13.846995020332
scalar RSUExampleScenario.node[95].veinsmobility 	totalDistance 	99.5648804329
scalar RSUExampleScenario.node[95].veinsmobility 	totalCO2Emission 	145.06759790567
scalar RSUExampleScenario.node[96].veinsmobility 	startTime 	231.4
scalar RSUExampleScenario.node[96].veinsmobility 	totalTime 	118.6
scalar RSUExampleScenario.node[96].veinsmobility 	stopTime 	350
scalar RSUExampleScenario.node[96].veinsmobility 	minSpeed 	0
scalar RSUExampleScenario.node[96].veinsmobility 	maxSpeed 	13.763692025298
scalar RSUExampleScenario.node[96].veinsmobility 	totalDistance 	83.432093925452
scalar RSUExampleScenario.node[96].veinsmobility 	totalCO2Emission 	142.34306255282
scalar RSUExampleScenario.node[97].veinsmobility 	startTime 	233.8
scalar RSUExampleScenario.node[97].veinsmobility 	totalTime 	116.2
scalar RSUExampleScenario.node[97].veinsmobility 	stopTime 	350
scalar RSUExampleScenario.node[97].veinsmobility 	minSpeed 	0
scalar RSUExampleScenario.node[97].veinsmobility 	maxSpeed 	12.15880149013
scalar RSUExampleScenario.node[97].veinsmobility 	totalDistance 	55.009060773664
scalar RSUExampleScenario.node[97].veinsmobility 	totalCO2Emission 	134.06260332108
scalar RSUExampleScenario.node[98].veinsmobility 	startTime 	236.2
scalar RSUExampleScenario.node[98].veinsmobility 	totalTime 	113.8
scalar RSUExampleScenario.node[98].veinsmobility 	stopTime 	350
scalar RSUExampleScenario.node[98].veinsmobility 	minSpeed 	0
scalar RSUExampleScenario.node[98].veinsmobility 	maxSpeed 	7.7721382948678
scalar RSUExampleScenario.node[98].veinsmobility 	totalDistance 	21.691325922204
scalar RSUExampleScenario.node[98].veinsmobility 	totalCO2Emission 	119.38214562405
scalar RSUExampleScenario.node[99].veinsmobility 	startTime 	238.6
scalar RSUExampleScenario.node[99].veinsmobility 	totalTime 	111.4
scalar RSUExampleScenario.node[99].veinsmobility 	stopTime 	350
scalar RSUExampleScenario.node[99].veinsmobility 	minSpeed 	0
scalar RSUExampleScenario.node[99].veinsmobility 	maxSpeed 	3.1037069187636
scalar RSUExampleScenario.node[99].veinsmobility 	totalDistance 	3.280192563769
scalar RSUExampleScenario.node[99].veinsmobility 	totalCO2Emission 	109.81671277309
