version 2
run statistic1-936-20150314-07:29:43-32328
attr c 28
attr configname statistic1
attr datetime 20150314-07:29:43
attr experiment statistic1
attr inifile omnetpp.ini
attr iterationvars "$p=1/20, $c=28"
attr iterationvars2 "$p=1/20, $c=28, $repetition=36"
attr measurement "$p=1/20, $c=28"
attr network RSUExampleScenario
attr p 1/20
attr processid 32328
attr repetition 36
attr replication #36
attr resultdir results
attr runnumber 936
attr seedset 936

scalar . 	c 	28
scalar RSUExampleScenario.rsu[0].appl 	NumberofCH 	10
scalar RSUExampleScenario.rsu[0].appl 	NumberofON 	88
scalar RSUExampleScenario.rsu[0].appl 	NumberofFN 	2
scalar RSUExampleScenario.rsu[0].appl 	meanClusterNodes 	10
scalar RSUExampleScenario.rsu[0].appl 	varClusterNodes 	3.1622776601684
scalar RSUExampleScenario.rsu[0].appl 	sumCHutility 	378.3568331855
scalar RSUExampleScenario.rsu[0].appl 	meanCHutility 	10
scalar RSUExampleScenario.rsu[0].appl 	varCHutility 	3.1622776601684
scalar RSUExampleScenario.rsu[0].appl 	sumDiffCHutility 	-37.47420880181
scalar RSUExampleScenario.rsu[0].appl 	meanDiffCHutility 	10
scalar RSUExampleScenario.rsu[0].appl 	varDiffCHutility 	3.1622776601684
scalar RSUExampleScenario.rsu[0].appl 	expectedCHutility 	340.88262438369
scalar RSUExampleScenario.rsu[0].appl 	meanExpectedCHutility 	10
scalar RSUExampleScenario.rsu[0].appl 	varExpectedCHutility 	3.1622776601684
