version 2
run statistic-465-20150313-23:18:02-20132
attr c 28
attr configname statistic
attr datetime 20150313-23:18:02
attr experiment statistic
attr inifile omnetpp.ini
attr iterationvars "$p=1/25, $c=28"
attr iterationvars2 "$p=1/25, $c=28, $repetition=65"
attr measurement "$p=1/25, $c=28"
attr network RSUExampleScenario
attr p 1/25
attr processid 20132
attr repetition 65
attr replication #65
attr resultdir results
attr runnumber 465
attr seedset 465

scalar . 	c 	28
scalar RSUExampleScenario.rsu[0].appl 	NumberofCH 	3
scalar RSUExampleScenario.rsu[0].appl 	NumberofON 	59
scalar RSUExampleScenario.rsu[0].appl 	NumberofFN 	38
scalar RSUExampleScenario.rsu[0].appl 	meanClusterNodes 	3
scalar RSUExampleScenario.rsu[0].appl 	varClusterNodes 	1.7320508075689
scalar RSUExampleScenario.rsu[0].appl 	sumCHutility 	104.19567944752
scalar RSUExampleScenario.rsu[0].appl 	meanCHutility 	3
scalar RSUExampleScenario.rsu[0].appl 	varCHutility 	1.7320508075689
scalar RSUExampleScenario.rsu[0].appl 	sumDiffCHutility 	-1.8741424152994
scalar RSUExampleScenario.rsu[0].appl 	meanDiffCHutility 	3
scalar RSUExampleScenario.rsu[0].appl 	varDiffCHutility 	1.7320508075689
scalar RSUExampleScenario.rsu[0].appl 	expectedCHutility 	102.32153703222
scalar RSUExampleScenario.rsu[0].appl 	meanExpectedCHutility 	3
scalar RSUExampleScenario.rsu[0].appl 	varExpectedCHutility 	1.7320508075689
