version 2
run statistic-473-20150312-19:14:47-18516
attr c 23
attr configname statistic
attr datetime 20150312-19:14:47
attr experiment statistic
attr inifile omnetpp.ini
attr iterationvars "$p=1/20, $c=23"
attr iterationvars2 "$p=1/20, $c=23, $repetition=73"
attr measurement "$p=1/20, $c=23"
attr network RSUExampleScenario
attr p 1/20
attr processid 18516
attr repetition 73
attr replication #73
attr resultdir results
attr runnumber 473
attr seedset 473

scalar . 	c 	23
scalar RSUExampleScenario.rsu[0].appl 	NumberofCH 	3
scalar RSUExampleScenario.rsu[0].appl 	NumberofON 	57
scalar RSUExampleScenario.rsu[0].appl 	NumberofFN 	40
scalar RSUExampleScenario.rsu[0].appl 	meanClusterNodes 	3
scalar RSUExampleScenario.rsu[0].appl 	varClusterNodes 	1.7320508075689
scalar RSUExampleScenario.rsu[0].appl 	sumCHutility 	106.49295947361
scalar RSUExampleScenario.rsu[0].appl 	meanCHutility 	3
scalar RSUExampleScenario.rsu[0].appl 	varCHutility 	1.7320508075689
scalar RSUExampleScenario.rsu[0].appl 	sumDiffCHutility 	-4.0477571546395
scalar RSUExampleScenario.rsu[0].appl 	meanDiffCHutility 	3
scalar RSUExampleScenario.rsu[0].appl 	varDiffCHutility 	1.7320508075689
scalar RSUExampleScenario.rsu[0].appl 	expectedCHutility 	102.44520231897
scalar RSUExampleScenario.rsu[0].appl 	meanExpectedCHutility 	3
scalar RSUExampleScenario.rsu[0].appl 	varExpectedCHutility 	1.7320508075689
