version 2
run statisticRVV-190-20150325-23:38:44-25396
attr c 8
attr configname statisticRVV
attr datetime 20150325-23:38:44
attr experiment statisticRVV
attr inifile omnetpp.ini
attr iterationvars "$sc=\"erlangen-medium.launchd.xml\", $p=1/8, $c=8"
attr iterationvars2 "$sc=\"erlangen-medium.launchd.xml\", $p=1/8, $c=8, $repetition=0"
attr measurement "$sc=\"erlangen-medium.launchd.xml\", $p=1/8, $c=8"
attr network RSUExampleScenario
attr p 1/8
attr processid 25396
attr repetition 0
attr replication #0
attr resultdir results
attr runnumber 190
attr sc "\"erlangen-medium.launchd.xml\""
attr seedset 190

scalar . 	c 	8
scalar RSUExampleScenario.node[0].veinsmobility 	startTime 	0.1
scalar RSUExampleScenario.node[0].veinsmobility 	totalTime 	264.7
scalar RSUExampleScenario.node[0].veinsmobility 	stopTime 	264.9
scalar RSUExampleScenario.node[0].veinsmobility 	minSpeed 	0.25031333840126
scalar RSUExampleScenario.node[0].veinsmobility 	maxSpeed 	13.999992957488
scalar RSUExampleScenario.node[0].veinsmobility 	totalDistance 	3410.0314054764
scalar RSUExampleScenario.node[0].veinsmobility 	totalCO2Emission 	694.64280264836
scalar RSUExampleScenario.node[1].veinsmobility 	startTime 	3.1
scalar RSUExampleScenario.node[1].veinsmobility 	totalTime 	265.5
scalar RSUExampleScenario.node[1].veinsmobility 	stopTime 	268.7
scalar RSUExampleScenario.node[1].veinsmobility 	minSpeed 	0.24832715739263
scalar RSUExampleScenario.node[1].veinsmobility 	maxSpeed 	13.999788479279
scalar RSUExampleScenario.node[1].veinsmobility 	totalDistance 	3409.4422105125
scalar RSUExampleScenario.node[1].veinsmobility 	totalCO2Emission 	692.98926740026
scalar RSUExampleScenario.node[2].veinsmobility 	startTime 	6.1
scalar RSUExampleScenario.node[2].veinsmobility 	totalTime 	266.1
scalar RSUExampleScenario.node[2].veinsmobility 	stopTime 	272.3
scalar RSUExampleScenario.node[2].veinsmobility 	minSpeed 	0.25196592327347
scalar RSUExampleScenario.node[2].veinsmobility 	maxSpeed 	13.999986217686
scalar RSUExampleScenario.node[2].veinsmobility 	totalDistance 	3409.3837146923
scalar RSUExampleScenario.node[2].veinsmobility 	totalCO2Emission 	686.6501970646
scalar RSUExampleScenario.node[3].veinsmobility 	startTime 	9.1
scalar RSUExampleScenario.node[3].veinsmobility 	totalTime 	266.5
scalar RSUExampleScenario.node[3].veinsmobility 	stopTime 	275.7
scalar RSUExampleScenario.node[3].veinsmobility 	minSpeed 	0.24852542292234
scalar RSUExampleScenario.node[3].veinsmobility 	maxSpeed 	13.999942974513
scalar RSUExampleScenario.node[3].veinsmobility 	totalDistance 	3409.4588898657
scalar RSUExampleScenario.node[3].veinsmobility 	totalCO2Emission 	691.79716792842
scalar RSUExampleScenario.node[4].veinsmobility 	startTime 	12.1
scalar RSUExampleScenario.node[4].veinsmobility 	totalTime 	266.6
scalar RSUExampleScenario.node[4].veinsmobility 	stopTime 	278.8
scalar RSUExampleScenario.node[4].veinsmobility 	minSpeed 	0.25577665895852
scalar RSUExampleScenario.node[4].veinsmobility 	maxSpeed 	13.999995155972
scalar RSUExampleScenario.node[4].veinsmobility 	totalDistance 	3413.4248316492
scalar RSUExampleScenario.node[4].veinsmobility 	totalCO2Emission 	690.79160840779
scalar RSUExampleScenario.node[5].veinsmobility 	startTime 	15.1
scalar RSUExampleScenario.node[5].veinsmobility 	totalTime 	266.8
scalar RSUExampleScenario.node[5].veinsmobility 	stopTime 	282
scalar RSUExampleScenario.node[5].veinsmobility 	minSpeed 	0.25731918976898
scalar RSUExampleScenario.node[5].veinsmobility 	maxSpeed 	13.999973911843
scalar RSUExampleScenario.node[5].veinsmobility 	totalDistance 	3409.4796941257
scalar RSUExampleScenario.node[5].veinsmobility 	totalCO2Emission 	691.03251712889
scalar RSUExampleScenario.node[6].veinsmobility 	startTime 	18.1
scalar RSUExampleScenario.node[6].veinsmobility 	totalTime 	266.8
scalar RSUExampleScenario.node[6].veinsmobility 	stopTime 	285
scalar RSUExampleScenario.node[6].veinsmobility 	minSpeed 	0.25833563120547
scalar RSUExampleScenario.node[6].veinsmobility 	maxSpeed 	13.999992893017
scalar RSUExampleScenario.node[6].veinsmobility 	totalDistance 	3413.7146838839
scalar RSUExampleScenario.node[6].veinsmobility 	totalCO2Emission 	692.1932739846
scalar RSUExampleScenario.node[7].veinsmobility 	startTime 	21.1
scalar RSUExampleScenario.node[7].veinsmobility 	totalTime 	266.8
scalar RSUExampleScenario.node[7].veinsmobility 	stopTime 	288
scalar RSUExampleScenario.node[7].veinsmobility 	minSpeed 	0.24994173878338
scalar RSUExampleScenario.node[7].veinsmobility 	maxSpeed 	13.999912334597
scalar RSUExampleScenario.node[7].veinsmobility 	totalDistance 	3409.5280317613
scalar RSUExampleScenario.node[7].veinsmobility 	totalCO2Emission 	693.32239486563
scalar RSUExampleScenario.node[8].veinsmobility 	startTime 	24.1
scalar RSUExampleScenario.node[8].veinsmobility 	totalTime 	266.9
scalar RSUExampleScenario.node[8].veinsmobility 	stopTime 	291.1
scalar RSUExampleScenario.node[8].veinsmobility 	minSpeed 	0.25988722241903
scalar RSUExampleScenario.node[8].veinsmobility 	maxSpeed 	13.999906407762
scalar RSUExampleScenario.node[8].veinsmobility 	totalDistance 	3409.8541286486
scalar RSUExampleScenario.node[8].veinsmobility 	totalCO2Emission 	693.38998046044
scalar RSUExampleScenario.node[9].veinsmobility 	startTime 	27.1
scalar RSUExampleScenario.node[9].veinsmobility 	totalTime 	267
scalar RSUExampleScenario.node[9].veinsmobility 	stopTime 	294.2
scalar RSUExampleScenario.node[9].veinsmobility 	minSpeed 	0.25787727188412
scalar RSUExampleScenario.node[9].veinsmobility 	maxSpeed 	13.99998374125
scalar RSUExampleScenario.node[9].veinsmobility 	totalDistance 	3414.0099505761
scalar RSUExampleScenario.node[9].veinsmobility 	totalCO2Emission 	684.89539627391
scalar RSUExampleScenario.node[10].veinsmobility 	startTime 	30.1
scalar RSUExampleScenario.node[10].veinsmobility 	totalTime 	267
scalar RSUExampleScenario.node[10].veinsmobility 	stopTime 	297.2
scalar RSUExampleScenario.node[10].veinsmobility 	minSpeed 	0.25589392971271
scalar RSUExampleScenario.node[10].veinsmobility 	maxSpeed 	13.999823199501
scalar RSUExampleScenario.node[10].veinsmobility 	totalDistance 	3409.2089557258
scalar RSUExampleScenario.node[10].veinsmobility 	totalCO2Emission 	692.33532973802
scalar RSUExampleScenario.node[11].veinsmobility 	startTime 	33.1
scalar RSUExampleScenario.node[11].veinsmobility 	totalTime 	267
scalar RSUExampleScenario.node[11].veinsmobility 	stopTime 	300.2
scalar RSUExampleScenario.node[11].veinsmobility 	minSpeed 	0.25128667526878
scalar RSUExampleScenario.node[11].veinsmobility 	maxSpeed 	13.999998687822
scalar RSUExampleScenario.node[11].veinsmobility 	totalDistance 	3413.9262707673
scalar RSUExampleScenario.node[11].veinsmobility 	totalCO2Emission 	695.82934263585
scalar RSUExampleScenario.node[12].veinsmobility 	startTime 	36.1
scalar RSUExampleScenario.node[12].veinsmobility 	totalTime 	267
scalar RSUExampleScenario.node[12].veinsmobility 	stopTime 	303.2
scalar RSUExampleScenario.node[12].veinsmobility 	minSpeed 	0.25933387672273
scalar RSUExampleScenario.node[12].veinsmobility 	maxSpeed 	13.999918284102
scalar RSUExampleScenario.node[12].veinsmobility 	totalDistance 	3409.6884612329
scalar RSUExampleScenario.node[12].veinsmobility 	totalCO2Emission 	696.04933869684
scalar RSUExampleScenario.node[13].veinsmobility 	startTime 	39.1
scalar RSUExampleScenario.node[13].veinsmobility 	totalTime 	267
scalar RSUExampleScenario.node[13].veinsmobility 	stopTime 	306.2
scalar RSUExampleScenario.node[13].veinsmobility 	minSpeed 	0.2591217358741
scalar RSUExampleScenario.node[13].veinsmobility 	maxSpeed 	13.999996477745
scalar RSUExampleScenario.node[13].veinsmobility 	totalDistance 	3413.9379484033
scalar RSUExampleScenario.node[13].veinsmobility 	totalCO2Emission 	689.12106455991
scalar RSUExampleScenario.node[14].veinsmobility 	startTime 	42.1
scalar RSUExampleScenario.node[14].veinsmobility 	totalTime 	267.1
scalar RSUExampleScenario.node[14].veinsmobility 	stopTime 	309.3
scalar RSUExampleScenario.node[14].veinsmobility 	minSpeed 	0.25106685957639
scalar RSUExampleScenario.node[14].veinsmobility 	maxSpeed 	13.999950842524
scalar RSUExampleScenario.node[14].veinsmobility 	totalDistance 	3409.7679688602
scalar RSUExampleScenario.node[14].veinsmobility 	totalCO2Emission 	695.70484387395
scalar RSUExampleScenario.node[15].veinsmobility 	startTime 	45.1
scalar RSUExampleScenario.node[15].veinsmobility 	totalTime 	267.2
scalar RSUExampleScenario.node[15].veinsmobility 	stopTime 	312.4
scalar RSUExampleScenario.node[15].veinsmobility 	minSpeed 	0.25546225850796
scalar RSUExampleScenario.node[15].veinsmobility 	maxSpeed 	13.999641713761
scalar RSUExampleScenario.node[15].veinsmobility 	totalDistance 	3413.6187994596
scalar RSUExampleScenario.node[15].veinsmobility 	totalCO2Emission 	691.04044776418
scalar RSUExampleScenario.node[16].veinsmobility 	startTime 	48.1
scalar RSUExampleScenario.node[16].veinsmobility 	totalTime 	267.3
scalar RSUExampleScenario.node[16].veinsmobility 	stopTime 	315.5
scalar RSUExampleScenario.node[16].veinsmobility 	minSpeed 	0.24976320304233
scalar RSUExampleScenario.node[16].veinsmobility 	maxSpeed 	13.999964837895
scalar RSUExampleScenario.node[16].veinsmobility 	totalDistance 	3410.2113982701
scalar RSUExampleScenario.node[16].veinsmobility 	totalCO2Emission 	691.65629617198
scalar RSUExampleScenario.node[17].veinsmobility 	startTime 	51.1
scalar RSUExampleScenario.node[17].veinsmobility 	totalTime 	267.3
scalar RSUExampleScenario.node[17].veinsmobility 	stopTime 	318.5
scalar RSUExampleScenario.node[17].veinsmobility 	minSpeed 	0.25662047578534
scalar RSUExampleScenario.node[17].veinsmobility 	maxSpeed 	13.99993871381
scalar RSUExampleScenario.node[17].veinsmobility 	totalDistance 	3413.7891406265
scalar RSUExampleScenario.node[17].veinsmobility 	totalCO2Emission 	696.78454282979
scalar RSUExampleScenario.node[18].veinsmobility 	startTime 	54.1
scalar RSUExampleScenario.node[18].veinsmobility 	totalTime 	267.3
scalar RSUExampleScenario.node[18].veinsmobility 	stopTime 	321.5
scalar RSUExampleScenario.node[18].veinsmobility 	minSpeed 	0.24795195272169
scalar RSUExampleScenario.node[18].veinsmobility 	maxSpeed 	13.999990990704
scalar RSUExampleScenario.node[18].veinsmobility 	totalDistance 	3409.3639168058
scalar RSUExampleScenario.node[18].veinsmobility 	totalCO2Emission 	689.66438566152
scalar RSUExampleScenario.node[19].veinsmobility 	startTime 	57.1
scalar RSUExampleScenario.node[19].veinsmobility 	totalTime 	267.3
scalar RSUExampleScenario.node[19].veinsmobility 	stopTime 	324.5
scalar RSUExampleScenario.node[19].veinsmobility 	minSpeed 	0.25520495465258
scalar RSUExampleScenario.node[19].veinsmobility 	maxSpeed 	13.999982067219
scalar RSUExampleScenario.node[19].veinsmobility 	totalDistance 	3413.3356330155
scalar RSUExampleScenario.node[19].veinsmobility 	totalCO2Emission 	688.36434451889
scalar RSUExampleScenario.node[20].veinsmobility 	startTime 	60.1
scalar RSUExampleScenario.node[20].veinsmobility 	totalTime 	267.4
scalar RSUExampleScenario.node[20].veinsmobility 	stopTime 	327.6
scalar RSUExampleScenario.node[20].veinsmobility 	minSpeed 	0.25803535827878
scalar RSUExampleScenario.node[20].veinsmobility 	maxSpeed 	13.999892795191
scalar RSUExampleScenario.node[20].veinsmobility 	totalDistance 	3410.1225528194
scalar RSUExampleScenario.node[20].veinsmobility 	totalCO2Emission 	688.33862284932
scalar RSUExampleScenario.node[21].veinsmobility 	startTime 	63.1
scalar RSUExampleScenario.node[21].veinsmobility 	totalTime 	267.5
scalar RSUExampleScenario.node[21].veinsmobility 	stopTime 	330.7
scalar RSUExampleScenario.node[21].veinsmobility 	minSpeed 	0.25117886545695
scalar RSUExampleScenario.node[21].veinsmobility 	maxSpeed 	13.99995406897
scalar RSUExampleScenario.node[21].veinsmobility 	totalDistance 	3413.9204443741
scalar RSUExampleScenario.node[21].veinsmobility 	totalCO2Emission 	687.40102777202
scalar RSUExampleScenario.node[22].veinsmobility 	startTime 	66.1
scalar RSUExampleScenario.node[22].veinsmobility 	totalTime 	267.6
scalar RSUExampleScenario.node[22].veinsmobility 	stopTime 	333.8
scalar RSUExampleScenario.node[22].veinsmobility 	minSpeed 	0.2514639115599
scalar RSUExampleScenario.node[22].veinsmobility 	maxSpeed 	13.99998747986
scalar RSUExampleScenario.node[22].veinsmobility 	totalDistance 	3409.4261449294
scalar RSUExampleScenario.node[22].veinsmobility 	totalCO2Emission 	690.18948434287
scalar RSUExampleScenario.node[23].veinsmobility 	startTime 	69.1
scalar RSUExampleScenario.node[23].veinsmobility 	totalTime 	267.7
scalar RSUExampleScenario.node[23].veinsmobility 	stopTime 	336.9
scalar RSUExampleScenario.node[23].veinsmobility 	minSpeed 	0.24945837719343
scalar RSUExampleScenario.node[23].veinsmobility 	maxSpeed 	13.999982259693
scalar RSUExampleScenario.node[23].veinsmobility 	totalDistance 	3414.2229232321
scalar RSUExampleScenario.node[23].veinsmobility 	totalCO2Emission 	690.60607354705
scalar RSUExampleScenario.node[24].veinsmobility 	startTime 	72.1
scalar RSUExampleScenario.node[24].veinsmobility 	totalTime 	267.8
scalar RSUExampleScenario.node[24].veinsmobility 	stopTime 	340
scalar RSUExampleScenario.node[24].veinsmobility 	minSpeed 	0.25880573411402
scalar RSUExampleScenario.node[24].veinsmobility 	maxSpeed 	13.999991996116
scalar RSUExampleScenario.node[24].veinsmobility 	totalDistance 	3409.541212822
scalar RSUExampleScenario.node[24].veinsmobility 	totalCO2Emission 	689.7087703109
scalar RSUExampleScenario.node[25].veinsmobility 	startTime 	75.1
scalar RSUExampleScenario.node[25].veinsmobility 	totalTime 	267.9
scalar RSUExampleScenario.node[25].veinsmobility 	stopTime 	343.1
scalar RSUExampleScenario.node[25].veinsmobility 	minSpeed 	0.2474564077598
scalar RSUExampleScenario.node[25].veinsmobility 	maxSpeed 	13.999996563706
scalar RSUExampleScenario.node[25].veinsmobility 	totalDistance 	3413.6619367426
scalar RSUExampleScenario.node[25].veinsmobility 	totalCO2Emission 	689.80889363189
scalar RSUExampleScenario.node[26].veinsmobility 	startTime 	78.1
scalar RSUExampleScenario.node[26].veinsmobility 	totalTime 	268.1
scalar RSUExampleScenario.node[26].veinsmobility 	stopTime 	346.3
scalar RSUExampleScenario.node[26].veinsmobility 	minSpeed 	0.25807052046526
scalar RSUExampleScenario.node[26].veinsmobility 	maxSpeed 	13.999924903407
scalar RSUExampleScenario.node[26].veinsmobility 	totalDistance 	3409.7213953115
scalar RSUExampleScenario.node[26].veinsmobility 	totalCO2Emission 	691.49162640529
scalar RSUExampleScenario.node[27].veinsmobility 	startTime 	81.1
scalar RSUExampleScenario.node[27].veinsmobility 	totalTime 	268.3
scalar RSUExampleScenario.node[27].veinsmobility 	stopTime 	349.5
scalar RSUExampleScenario.node[27].veinsmobility 	minSpeed 	0.25560305002192
scalar RSUExampleScenario.node[27].veinsmobility 	maxSpeed 	13.999960647686
scalar RSUExampleScenario.node[27].veinsmobility 	totalDistance 	3413.8451187
scalar RSUExampleScenario.node[27].veinsmobility 	totalCO2Emission 	693.93360072296
scalar RSUExampleScenario.node[28].veinsmobility 	startTime 	84.1
scalar RSUExampleScenario.node[28].veinsmobility 	totalTime 	268.6
scalar RSUExampleScenario.node[28].veinsmobility 	stopTime 	352.8
scalar RSUExampleScenario.node[28].veinsmobility 	minSpeed 	0.25572617090237
scalar RSUExampleScenario.node[28].veinsmobility 	maxSpeed 	13.999818861524
scalar RSUExampleScenario.node[28].veinsmobility 	totalDistance 	3410.0682023074
scalar RSUExampleScenario.node[28].veinsmobility 	totalCO2Emission 	690.91626368514
scalar RSUExampleScenario.node[29].veinsmobility 	startTime 	87.1
scalar RSUExampleScenario.node[29].veinsmobility 	totalTime 	268.9
scalar RSUExampleScenario.node[29].veinsmobility 	stopTime 	356.1
scalar RSUExampleScenario.node[29].veinsmobility 	minSpeed 	0.25467251595156
scalar RSUExampleScenario.node[29].veinsmobility 	maxSpeed 	13.99999398784
scalar RSUExampleScenario.node[29].veinsmobility 	totalDistance 	3414.0993927168
scalar RSUExampleScenario.node[29].veinsmobility 	totalCO2Emission 	691.75847932484
scalar RSUExampleScenario.node[30].veinsmobility 	startTime 	90.1
scalar RSUExampleScenario.node[30].veinsmobility 	totalTime 	269.3
scalar RSUExampleScenario.node[30].veinsmobility 	stopTime 	359.5
scalar RSUExampleScenario.node[30].veinsmobility 	minSpeed 	0.24741808231175
scalar RSUExampleScenario.node[30].veinsmobility 	maxSpeed 	13.999888243824
scalar RSUExampleScenario.node[30].veinsmobility 	totalDistance 	3409.7785545825
scalar RSUExampleScenario.node[30].veinsmobility 	totalCO2Emission 	692.11574252145
scalar RSUExampleScenario.node[31].veinsmobility 	startTime 	93.1
scalar RSUExampleScenario.node[31].veinsmobility 	totalTime 	269.7
scalar RSUExampleScenario.node[31].veinsmobility 	stopTime 	362.9
scalar RSUExampleScenario.node[31].veinsmobility 	minSpeed 	0.25660485997261
scalar RSUExampleScenario.node[31].veinsmobility 	maxSpeed 	13.999989974366
scalar RSUExampleScenario.node[31].veinsmobility 	totalDistance 	3414.1988100201
scalar RSUExampleScenario.node[31].veinsmobility 	totalCO2Emission 	691.61737752692
scalar RSUExampleScenario.node[32].veinsmobility 	startTime 	96.1
scalar RSUExampleScenario.node[32].veinsmobility 	totalTime 	270.2
scalar RSUExampleScenario.node[32].veinsmobility 	stopTime 	366.4
scalar RSUExampleScenario.node[32].veinsmobility 	minSpeed 	0.25763361087744
scalar RSUExampleScenario.node[32].veinsmobility 	maxSpeed 	13.999977109171
scalar RSUExampleScenario.node[32].veinsmobility 	totalDistance 	3409.7925887273
scalar RSUExampleScenario.node[32].veinsmobility 	totalCO2Emission 	691.57838098079
scalar RSUExampleScenario.node[33].veinsmobility 	startTime 	99.1
scalar RSUExampleScenario.node[33].veinsmobility 	totalTime 	270.8
scalar RSUExampleScenario.node[33].veinsmobility 	stopTime 	370
scalar RSUExampleScenario.node[33].veinsmobility 	minSpeed 	0.25812917373981
scalar RSUExampleScenario.node[33].veinsmobility 	maxSpeed 	13.999995139022
scalar RSUExampleScenario.node[33].veinsmobility 	totalDistance 	3414.3065718952
scalar RSUExampleScenario.node[33].veinsmobility 	totalCO2Emission 	688.86663858637
scalar RSUExampleScenario.node[34].veinsmobility 	startTime 	102.1
scalar RSUExampleScenario.node[34].veinsmobility 	totalTime 	271.4
scalar RSUExampleScenario.node[34].veinsmobility 	stopTime 	373.6
scalar RSUExampleScenario.node[34].veinsmobility 	minSpeed 	0.25232994458429
scalar RSUExampleScenario.node[34].veinsmobility 	maxSpeed 	13.999937138695
scalar RSUExampleScenario.node[34].veinsmobility 	totalDistance 	3410.1005106248
scalar RSUExampleScenario.node[34].veinsmobility 	totalCO2Emission 	692.85051999114
scalar RSUExampleScenario.node[35].veinsmobility 	startTime 	105.1
scalar RSUExampleScenario.node[35].veinsmobility 	totalTime 	272.1
scalar RSUExampleScenario.node[35].veinsmobility 	stopTime 	377.3
scalar RSUExampleScenario.node[35].veinsmobility 	minSpeed 	0.24780792651372
scalar RSUExampleScenario.node[35].veinsmobility 	maxSpeed 	13.999957056087
scalar RSUExampleScenario.node[35].veinsmobility 	totalDistance 	3414.016554096
scalar RSUExampleScenario.node[35].veinsmobility 	totalCO2Emission 	696.13557935508
scalar RSUExampleScenario.node[36].veinsmobility 	startTime 	108.1
scalar RSUExampleScenario.node[36].veinsmobility 	totalTime 	272.7
scalar RSUExampleScenario.node[36].veinsmobility 	stopTime 	380.9
scalar RSUExampleScenario.node[36].veinsmobility 	minSpeed 	0.25178427572642
scalar RSUExampleScenario.node[36].veinsmobility 	maxSpeed 	13.999979000618
scalar RSUExampleScenario.node[36].veinsmobility 	totalDistance 	3409.630588505
scalar RSUExampleScenario.node[36].veinsmobility 	totalCO2Emission 	694.35827212064
scalar RSUExampleScenario.node[37].veinsmobility 	startTime 	111.1
scalar RSUExampleScenario.node[37].veinsmobility 	totalTime 	273.3
scalar RSUExampleScenario.node[37].veinsmobility 	stopTime 	384.5
scalar RSUExampleScenario.node[37].veinsmobility 	minSpeed 	0.25444107357296
scalar RSUExampleScenario.node[37].veinsmobility 	maxSpeed 	13.999990557721
scalar RSUExampleScenario.node[37].veinsmobility 	totalDistance 	3413.5837744716
scalar RSUExampleScenario.node[37].veinsmobility 	totalCO2Emission 	693.03114248796
scalar RSUExampleScenario.node[38].veinsmobility 	startTime 	114.1
scalar RSUExampleScenario.node[38].veinsmobility 	totalTime 	274
scalar RSUExampleScenario.node[38].veinsmobility 	stopTime 	388.2
scalar RSUExampleScenario.node[38].veinsmobility 	minSpeed 	0.24999961780594
scalar RSUExampleScenario.node[38].veinsmobility 	maxSpeed 	13.99998310311
scalar RSUExampleScenario.node[38].veinsmobility 	totalDistance 	3409.6671339165
scalar RSUExampleScenario.node[38].veinsmobility 	totalCO2Emission 	695.40286704691
scalar RSUExampleScenario.node[39].veinsmobility 	startTime 	117.1
scalar RSUExampleScenario.node[39].veinsmobility 	totalTime 	274.7
scalar RSUExampleScenario.node[39].veinsmobility 	stopTime 	391.9
scalar RSUExampleScenario.node[39].veinsmobility 	minSpeed 	0.2513597426475
scalar RSUExampleScenario.node[39].veinsmobility 	maxSpeed 	13.999984876632
scalar RSUExampleScenario.node[39].veinsmobility 	totalDistance 	3414.265464443
scalar RSUExampleScenario.node[39].veinsmobility 	totalCO2Emission 	695.84917512165
scalar RSUExampleScenario.node[40].veinsmobility 	startTime 	120.1
scalar RSUExampleScenario.node[40].veinsmobility 	totalTime 	275.4
scalar RSUExampleScenario.node[40].veinsmobility 	stopTime 	395.6
scalar RSUExampleScenario.node[40].veinsmobility 	minSpeed 	0.24898655774817
scalar RSUExampleScenario.node[40].veinsmobility 	maxSpeed 	13.999844194555
scalar RSUExampleScenario.node[40].veinsmobility 	totalDistance 	3409.6395254407
scalar RSUExampleScenario.node[40].veinsmobility 	totalCO2Emission 	696.15660921897
scalar RSUExampleScenario.node[41].veinsmobility 	startTime 	123.1
scalar RSUExampleScenario.node[41].veinsmobility 	totalTime 	276.1
scalar RSUExampleScenario.node[41].veinsmobility 	stopTime 	399.3
scalar RSUExampleScenario.node[41].veinsmobility 	minSpeed 	0.25383201239444
scalar RSUExampleScenario.node[41].veinsmobility 	maxSpeed 	13.999614016316
scalar RSUExampleScenario.node[41].veinsmobility 	totalDistance 	3414.1115880987
scalar RSUExampleScenario.node[41].veinsmobility 	totalCO2Emission 	699.03240213491
scalar RSUExampleScenario.node[42].veinsmobility 	startTime 	126.1
scalar RSUExampleScenario.node[42].veinsmobility 	totalTime 	276.8
scalar RSUExampleScenario.node[42].veinsmobility 	stopTime 	403
scalar RSUExampleScenario.node[42].veinsmobility 	minSpeed 	0.25914744650736
scalar RSUExampleScenario.node[42].veinsmobility 	maxSpeed 	13.999889102315
scalar RSUExampleScenario.node[42].veinsmobility 	totalDistance 	3409.7675797054
scalar RSUExampleScenario.node[42].veinsmobility 	totalCO2Emission 	703.48912043905
scalar RSUExampleScenario.node[43].veinsmobility 	startTime 	129.1
scalar RSUExampleScenario.node[43].veinsmobility 	totalTime 	277.5
scalar RSUExampleScenario.node[43].veinsmobility 	stopTime 	406.7
scalar RSUExampleScenario.node[43].veinsmobility 	minSpeed 	0.25654453446157
scalar RSUExampleScenario.node[43].veinsmobility 	maxSpeed 	13.999959656924
scalar RSUExampleScenario.node[43].veinsmobility 	totalDistance 	3414.2769800156
scalar RSUExampleScenario.node[43].veinsmobility 	totalCO2Emission 	702.39179179541
scalar RSUExampleScenario.node[44].veinsmobility 	startTime 	132.1
scalar RSUExampleScenario.node[44].veinsmobility 	totalTime 	278.2
scalar RSUExampleScenario.node[44].veinsmobility 	stopTime 	410.4
scalar RSUExampleScenario.node[44].veinsmobility 	minSpeed 	0.25165033476218
scalar RSUExampleScenario.node[44].veinsmobility 	maxSpeed 	13.999891582171
scalar RSUExampleScenario.node[44].veinsmobility 	totalDistance 	3409.7779733532
scalar RSUExampleScenario.node[44].veinsmobility 	totalCO2Emission 	703.18194436707
scalar RSUExampleScenario.node[45].veinsmobility 	startTime 	135.1
scalar RSUExampleScenario.node[45].veinsmobility 	totalTime 	278.8
scalar RSUExampleScenario.node[45].veinsmobility 	stopTime 	414
scalar RSUExampleScenario.node[45].veinsmobility 	minSpeed 	0.25696787812677
scalar RSUExampleScenario.node[45].veinsmobility 	maxSpeed 	13.999922305082
scalar RSUExampleScenario.node[45].veinsmobility 	totalDistance 	3413.6320144376
scalar RSUExampleScenario.node[45].veinsmobility 	totalCO2Emission 	699.27664419823
scalar RSUExampleScenario.node[46].veinsmobility 	startTime 	138.1
scalar RSUExampleScenario.node[46].veinsmobility 	totalTime 	279.5
scalar RSUExampleScenario.node[46].veinsmobility 	stopTime 	417.7
scalar RSUExampleScenario.node[46].veinsmobility 	minSpeed 	0.24800291945692
scalar RSUExampleScenario.node[46].veinsmobility 	maxSpeed 	13.999996805699
scalar RSUExampleScenario.node[46].veinsmobility 	totalDistance 	3409.4532453194
scalar RSUExampleScenario.node[46].veinsmobility 	totalCO2Emission 	703.02260029062
scalar RSUExampleScenario.node[47].veinsmobility 	startTime 	141.1
scalar RSUExampleScenario.node[47].veinsmobility 	totalTime 	280.2
scalar RSUExampleScenario.node[47].veinsmobility 	stopTime 	421.4
scalar RSUExampleScenario.node[47].veinsmobility 	minSpeed 	0.25468378488836
scalar RSUExampleScenario.node[47].veinsmobility 	maxSpeed 	13.999970239459
scalar RSUExampleScenario.node[47].veinsmobility 	totalDistance 	3413.8910763145
scalar RSUExampleScenario.node[47].veinsmobility 	totalCO2Emission 	701.43001847876
scalar RSUExampleScenario.node[48].veinsmobility 	startTime 	144.1
scalar RSUExampleScenario.node[48].veinsmobility 	totalTime 	280.9
scalar RSUExampleScenario.node[48].veinsmobility 	stopTime 	425.1
scalar RSUExampleScenario.node[48].veinsmobility 	minSpeed 	0.25747359292838
scalar RSUExampleScenario.node[48].veinsmobility 	maxSpeed 	13.999908282531
scalar RSUExampleScenario.node[48].veinsmobility 	totalDistance 	3409.7187542578
scalar RSUExampleScenario.node[48].veinsmobility 	totalCO2Emission 	700.56902989148
scalar RSUExampleScenario.node[49].veinsmobility 	startTime 	147.1
scalar RSUExampleScenario.node[49].veinsmobility 	totalTime 	281.6
scalar RSUExampleScenario.node[49].veinsmobility 	stopTime 	428.8
scalar RSUExampleScenario.node[49].veinsmobility 	minSpeed 	0.2478885783772
scalar RSUExampleScenario.node[49].veinsmobility 	maxSpeed 	13.999805839814
scalar RSUExampleScenario.node[49].veinsmobility 	totalDistance 	3409.690861567
scalar RSUExampleScenario.node[49].veinsmobility 	totalCO2Emission 	702.501247104
scalar RSUExampleScenario.node[50].veinsmobility 	startTime 	150.1
scalar RSUExampleScenario.node[50].veinsmobility 	totalTime 	282.3
scalar RSUExampleScenario.node[50].veinsmobility 	stopTime 	432.5
scalar RSUExampleScenario.node[50].veinsmobility 	minSpeed 	0.25600800451892
scalar RSUExampleScenario.node[50].veinsmobility 	maxSpeed 	13.999867119223
scalar RSUExampleScenario.node[50].veinsmobility 	totalDistance 	3413.7247439351
scalar RSUExampleScenario.node[50].veinsmobility 	totalCO2Emission 	704.69776217826
scalar RSUExampleScenario.node[51].veinsmobility 	startTime 	153.1
scalar RSUExampleScenario.node[51].veinsmobility 	totalTime 	283.2
scalar RSUExampleScenario.node[51].veinsmobility 	stopTime 	436.4
scalar RSUExampleScenario.node[51].veinsmobility 	minSpeed 	0.25471522780857
scalar RSUExampleScenario.node[51].veinsmobility 	maxSpeed 	13.999928538501
scalar RSUExampleScenario.node[51].veinsmobility 	totalDistance 	3409.9439026608
scalar RSUExampleScenario.node[51].veinsmobility 	totalCO2Emission 	708.59585048876
scalar RSUExampleScenario.node[52].veinsmobility 	startTime 	156.1
scalar RSUExampleScenario.node[52].veinsmobility 	totalTime 	283.9
scalar RSUExampleScenario.node[52].veinsmobility 	stopTime 	440.1
scalar RSUExampleScenario.node[52].veinsmobility 	minSpeed 	0.24939949735091
scalar RSUExampleScenario.node[52].veinsmobility 	maxSpeed 	13.99993488037
scalar RSUExampleScenario.node[52].veinsmobility 	totalDistance 	3413.7874408865
scalar RSUExampleScenario.node[52].veinsmobility 	totalCO2Emission 	703.76221612364
scalar RSUExampleScenario.node[53].veinsmobility 	startTime 	159.1
scalar RSUExampleScenario.node[53].veinsmobility 	totalTime 	284.6
scalar RSUExampleScenario.node[53].veinsmobility 	stopTime 	443.8
scalar RSUExampleScenario.node[53].veinsmobility 	minSpeed 	0.24742370707169
scalar RSUExampleScenario.node[53].veinsmobility 	maxSpeed 	13.999897457005
scalar RSUExampleScenario.node[53].veinsmobility 	totalDistance 	3409.6220341445
scalar RSUExampleScenario.node[53].veinsmobility 	totalCO2Emission 	708.92417056233
scalar RSUExampleScenario.node[54].veinsmobility 	startTime 	162.1
scalar RSUExampleScenario.node[54].veinsmobility 	totalTime 	285.3
scalar RSUExampleScenario.node[54].veinsmobility 	stopTime 	447.5
scalar RSUExampleScenario.node[54].veinsmobility 	minSpeed 	0.2576111999054
scalar RSUExampleScenario.node[54].veinsmobility 	maxSpeed 	13.999981380953
scalar RSUExampleScenario.node[54].veinsmobility 	totalDistance 	3414.1907511274
scalar RSUExampleScenario.node[54].veinsmobility 	totalCO2Emission 	705.86414919384
scalar RSUExampleScenario.node[55].veinsmobility 	startTime 	165.1
scalar RSUExampleScenario.node[55].veinsmobility 	totalTime 	286
scalar RSUExampleScenario.node[55].veinsmobility 	stopTime 	451.2
scalar RSUExampleScenario.node[55].veinsmobility 	minSpeed 	0.25128464338207
scalar RSUExampleScenario.node[55].veinsmobility 	maxSpeed 	13.999936199479
scalar RSUExampleScenario.node[55].veinsmobility 	totalDistance 	3409.9252769319
scalar RSUExampleScenario.node[55].veinsmobility 	totalCO2Emission 	704.75669220724
scalar RSUExampleScenario.node[56].veinsmobility 	startTime 	168.1
scalar RSUExampleScenario.node[56].veinsmobility 	totalTime 	286.7
scalar RSUExampleScenario.node[56].veinsmobility 	stopTime 	454.9
scalar RSUExampleScenario.node[56].veinsmobility 	minSpeed 	0.24742899328121
scalar RSUExampleScenario.node[56].veinsmobility 	maxSpeed 	13.999991824708
scalar RSUExampleScenario.node[56].veinsmobility 	totalDistance 	3413.8829400343
scalar RSUExampleScenario.node[56].veinsmobility 	totalCO2Emission 	709.26144728998
scalar RSUExampleScenario.node[57].veinsmobility 	startTime 	171.1
scalar RSUExampleScenario.node[57].veinsmobility 	totalTime 	287.4
scalar RSUExampleScenario.node[57].veinsmobility 	stopTime 	458.6
scalar RSUExampleScenario.node[57].veinsmobility 	minSpeed 	0.25073509100568
scalar RSUExampleScenario.node[57].veinsmobility 	maxSpeed 	13.999942273386
scalar RSUExampleScenario.node[57].veinsmobility 	totalDistance 	3409.6777773466
scalar RSUExampleScenario.node[57].veinsmobility 	totalCO2Emission 	708.31835916266
scalar RSUExampleScenario.node[58].veinsmobility 	startTime 	174.1
scalar RSUExampleScenario.node[58].veinsmobility 	totalTime 	288
scalar RSUExampleScenario.node[58].veinsmobility 	stopTime 	462.2
scalar RSUExampleScenario.node[58].veinsmobility 	minSpeed 	0.25072415382718
scalar RSUExampleScenario.node[58].veinsmobility 	maxSpeed 	13.999852835762
scalar RSUExampleScenario.node[58].veinsmobility 	totalDistance 	3413.5555148622
scalar RSUExampleScenario.node[58].veinsmobility 	totalCO2Emission 	709.11276290313
scalar RSUExampleScenario.node[59].veinsmobility 	startTime 	177.1
scalar RSUExampleScenario.node[59].veinsmobility 	totalTime 	288.7
scalar RSUExampleScenario.node[59].veinsmobility 	stopTime 	465.9
scalar RSUExampleScenario.node[59].veinsmobility 	minSpeed 	0.25980815622257
scalar RSUExampleScenario.node[59].veinsmobility 	maxSpeed 	13.999959904456
scalar RSUExampleScenario.node[59].veinsmobility 	totalDistance 	3409.961867032
scalar RSUExampleScenario.node[59].veinsmobility 	totalCO2Emission 	713.50010268865
scalar RSUExampleScenario.node[60].veinsmobility 	startTime 	180.1
scalar RSUExampleScenario.node[60].veinsmobility 	totalTime 	289.4
scalar RSUExampleScenario.node[60].veinsmobility 	stopTime 	469.6
scalar RSUExampleScenario.node[60].veinsmobility 	minSpeed 	0.2574228468528
scalar RSUExampleScenario.node[60].veinsmobility 	maxSpeed 	13.999984104435
scalar RSUExampleScenario.node[60].veinsmobility 	totalDistance 	3413.8473419059
scalar RSUExampleScenario.node[60].veinsmobility 	totalCO2Emission 	711.11746921025
scalar RSUExampleScenario.node[61].veinsmobility 	startTime 	183.1
scalar RSUExampleScenario.node[61].veinsmobility 	totalTime 	290
scalar RSUExampleScenario.node[61].veinsmobility 	stopTime 	473.2
scalar RSUExampleScenario.node[61].veinsmobility 	minSpeed 	0.25657673746836
scalar RSUExampleScenario.node[61].veinsmobility 	maxSpeed 	13.999892279152
scalar RSUExampleScenario.node[61].veinsmobility 	totalDistance 	3409.4332537889
scalar RSUExampleScenario.node[61].veinsmobility 	totalCO2Emission 	712.27817444142
scalar RSUExampleScenario.node[62].veinsmobility 	startTime 	186.1
scalar RSUExampleScenario.node[62].veinsmobility 	totalTime 	290.7
scalar RSUExampleScenario.node[62].veinsmobility 	stopTime 	476.9
scalar RSUExampleScenario.node[62].veinsmobility 	minSpeed 	0.25640392799093
scalar RSUExampleScenario.node[62].veinsmobility 	maxSpeed 	13.999950819521
scalar RSUExampleScenario.node[62].veinsmobility 	totalDistance 	3414.0961689482
scalar RSUExampleScenario.node[62].veinsmobility 	totalCO2Emission 	711.72498016354
scalar RSUExampleScenario.node[63].veinsmobility 	startTime 	189.1
scalar RSUExampleScenario.node[63].veinsmobility 	totalTime 	291.4
scalar RSUExampleScenario.node[63].veinsmobility 	stopTime 	480.6
scalar RSUExampleScenario.node[63].veinsmobility 	minSpeed 	0.25384940198064
scalar RSUExampleScenario.node[63].veinsmobility 	maxSpeed 	13.999979868704
scalar RSUExampleScenario.node[63].veinsmobility 	totalDistance 	3410.0103951714
scalar RSUExampleScenario.node[63].veinsmobility 	totalCO2Emission 	713.79312668588
scalar RSUExampleScenario.node[64].veinsmobility 	startTime 	192.1
scalar RSUExampleScenario.node[64].veinsmobility 	totalTime 	292
scalar RSUExampleScenario.node[64].veinsmobility 	stopTime 	484.2
scalar RSUExampleScenario.node[64].veinsmobility 	minSpeed 	0.25307094742381
scalar RSUExampleScenario.node[64].veinsmobility 	maxSpeed 	13.999986577451
scalar RSUExampleScenario.node[64].veinsmobility 	totalDistance 	3413.5797434799
scalar RSUExampleScenario.node[64].veinsmobility 	totalCO2Emission 	712.96946091093
scalar RSUExampleScenario.node[65].veinsmobility 	startTime 	195.1
scalar RSUExampleScenario.node[65].veinsmobility 	totalTime 	292.7
scalar RSUExampleScenario.node[65].veinsmobility 	stopTime 	487.9
scalar RSUExampleScenario.node[65].veinsmobility 	minSpeed 	0.25054052523756
scalar RSUExampleScenario.node[65].veinsmobility 	maxSpeed 	13.999994417161
scalar RSUExampleScenario.node[65].veinsmobility 	totalDistance 	3409.7468326071
scalar RSUExampleScenario.node[65].veinsmobility 	totalCO2Emission 	715.03166425514
scalar RSUExampleScenario.node[66].veinsmobility 	startTime 	198.1
scalar RSUExampleScenario.node[66].veinsmobility 	totalTime 	293.4
scalar RSUExampleScenario.node[66].veinsmobility 	stopTime 	491.6
scalar RSUExampleScenario.node[66].veinsmobility 	minSpeed 	0.24760149326548
scalar RSUExampleScenario.node[66].veinsmobility 	maxSpeed 	13.999947210154
scalar RSUExampleScenario.node[66].veinsmobility 	totalDistance 	3414.0571252428
scalar RSUExampleScenario.node[66].veinsmobility 	totalCO2Emission 	714.54548752448
scalar RSUExampleScenario.node[67].veinsmobility 	startTime 	201.1
scalar RSUExampleScenario.node[67].veinsmobility 	totalTime 	294.1
scalar RSUExampleScenario.node[67].veinsmobility 	stopTime 	495.3
scalar RSUExampleScenario.node[67].veinsmobility 	minSpeed 	0.25128580036969
scalar RSUExampleScenario.node[67].veinsmobility 	maxSpeed 	13.999989650075
scalar RSUExampleScenario.node[67].veinsmobility 	totalDistance 	3409.5324771287
scalar RSUExampleScenario.node[67].veinsmobility 	totalCO2Emission 	713.53144724141
scalar RSUExampleScenario.node[68].veinsmobility 	startTime 	204.1
scalar RSUExampleScenario.node[68].veinsmobility 	totalTime 	294.8
scalar RSUExampleScenario.node[68].veinsmobility 	stopTime 	499
scalar RSUExampleScenario.node[68].veinsmobility 	minSpeed 	0.25838010637532
scalar RSUExampleScenario.node[68].veinsmobility 	maxSpeed 	13.999869885293
scalar RSUExampleScenario.node[68].veinsmobility 	totalDistance 	3413.8739397169
scalar RSUExampleScenario.node[68].veinsmobility 	totalCO2Emission 	716.11386071316
scalar RSUExampleScenario.node[69].veinsmobility 	startTime 	207.1
scalar RSUExampleScenario.node[69].veinsmobility 	totalTime 	295.5
scalar RSUExampleScenario.node[69].veinsmobility 	stopTime 	502.7
scalar RSUExampleScenario.node[69].veinsmobility 	minSpeed 	0.25940378231392
scalar RSUExampleScenario.node[69].veinsmobility 	maxSpeed 	13.999945193036
scalar RSUExampleScenario.node[69].veinsmobility 	totalDistance 	3409.557956694
scalar RSUExampleScenario.node[69].veinsmobility 	totalCO2Emission 	718.36377063761
scalar RSUExampleScenario.node[70].veinsmobility 	startTime 	210.1
scalar RSUExampleScenario.node[70].veinsmobility 	totalTime 	296.2
scalar RSUExampleScenario.node[70].veinsmobility 	stopTime 	506.4
scalar RSUExampleScenario.node[70].veinsmobility 	minSpeed 	0.24791026806924
scalar RSUExampleScenario.node[70].veinsmobility 	maxSpeed 	13.99999114719
scalar RSUExampleScenario.node[70].veinsmobility 	totalDistance 	3414.2101627818
scalar RSUExampleScenario.node[70].veinsmobility 	totalCO2Emission 	719.49308344007
scalar RSUExampleScenario.node[71].veinsmobility 	startTime 	213.1
scalar RSUExampleScenario.node[71].veinsmobility 	totalTime 	296.9
scalar RSUExampleScenario.node[71].veinsmobility 	stopTime 	510.1
scalar RSUExampleScenario.node[71].veinsmobility 	minSpeed 	0.2556147075179
scalar RSUExampleScenario.node[71].veinsmobility 	maxSpeed 	13.999956732977
scalar RSUExampleScenario.node[71].veinsmobility 	totalDistance 	3409.6054068733
scalar RSUExampleScenario.node[71].veinsmobility 	totalCO2Emission 	718.92370737096
scalar RSUExampleScenario.node[72].veinsmobility 	startTime 	216.1
scalar RSUExampleScenario.node[72].veinsmobility 	totalTime 	297.6
scalar RSUExampleScenario.node[72].veinsmobility 	stopTime 	513.8
scalar RSUExampleScenario.node[72].veinsmobility 	minSpeed 	0.2502509558266
scalar RSUExampleScenario.node[72].veinsmobility 	maxSpeed 	13.999957145862
scalar RSUExampleScenario.node[72].veinsmobility 	totalDistance 	3414.0201778069
scalar RSUExampleScenario.node[72].veinsmobility 	totalCO2Emission 	720.96984556594
scalar RSUExampleScenario.node[73].veinsmobility 	startTime 	219.1
scalar RSUExampleScenario.node[73].veinsmobility 	totalTime 	298.3
scalar RSUExampleScenario.node[73].veinsmobility 	stopTime 	517.5
scalar RSUExampleScenario.node[73].veinsmobility 	minSpeed 	0.251528402681
scalar RSUExampleScenario.node[73].veinsmobility 	maxSpeed 	13.999993352303
scalar RSUExampleScenario.node[73].veinsmobility 	totalDistance 	3409.5485052151
scalar RSUExampleScenario.node[73].veinsmobility 	totalCO2Emission 	714.83165152955
scalar RSUExampleScenario.node[74].veinsmobility 	startTime 	222.1
scalar RSUExampleScenario.node[74].veinsmobility 	totalTime 	299.1
scalar RSUExampleScenario.node[74].veinsmobility 	stopTime 	521.3
scalar RSUExampleScenario.node[74].veinsmobility 	minSpeed 	0.25461579085956
scalar RSUExampleScenario.node[74].veinsmobility 	maxSpeed 	13.99984171709
scalar RSUExampleScenario.node[74].veinsmobility 	totalDistance 	3414.1277287099
scalar RSUExampleScenario.node[74].veinsmobility 	totalCO2Emission 	717.86212815843
scalar RSUExampleScenario.node[75].veinsmobility 	startTime 	225.1
scalar RSUExampleScenario.node[75].veinsmobility 	totalTime 	299.8
scalar RSUExampleScenario.node[75].veinsmobility 	stopTime 	525
scalar RSUExampleScenario.node[75].veinsmobility 	minSpeed 	0.24936886509508
scalar RSUExampleScenario.node[75].veinsmobility 	maxSpeed 	13.999984562965
scalar RSUExampleScenario.node[75].veinsmobility 	totalDistance 	3409.7609875892
scalar RSUExampleScenario.node[75].veinsmobility 	totalCO2Emission 	723.36843442189
scalar RSUExampleScenario.node[76].veinsmobility 	startTime 	228.1
scalar RSUExampleScenario.node[76].veinsmobility 	totalTime 	300.5
scalar RSUExampleScenario.node[76].veinsmobility 	stopTime 	528.7
scalar RSUExampleScenario.node[76].veinsmobility 	minSpeed 	0.24783931844146
scalar RSUExampleScenario.node[76].veinsmobility 	maxSpeed 	13.999923520705
scalar RSUExampleScenario.node[76].veinsmobility 	totalDistance 	3413.9226163164
scalar RSUExampleScenario.node[76].veinsmobility 	totalCO2Emission 	725.6964364011
scalar RSUExampleScenario.node[77].veinsmobility 	startTime 	231.1
scalar RSUExampleScenario.node[77].veinsmobility 	totalTime 	301.2
scalar RSUExampleScenario.node[77].veinsmobility 	stopTime 	532.4
scalar RSUExampleScenario.node[77].veinsmobility 	minSpeed 	0.25900437955838
scalar RSUExampleScenario.node[77].veinsmobility 	maxSpeed 	13.999692544844
scalar RSUExampleScenario.node[77].veinsmobility 	totalDistance 	3409.5452729983
scalar RSUExampleScenario.node[77].veinsmobility 	totalCO2Emission 	723.10346887409
scalar RSUExampleScenario.node[78].veinsmobility 	startTime 	234.1
scalar RSUExampleScenario.node[78].veinsmobility 	totalTime 	301.9
scalar RSUExampleScenario.node[78].veinsmobility 	stopTime 	536.1
scalar RSUExampleScenario.node[78].veinsmobility 	minSpeed 	0.25325963099068
scalar RSUExampleScenario.node[78].veinsmobility 	maxSpeed 	13.999910110051
scalar RSUExampleScenario.node[78].veinsmobility 	totalDistance 	3413.7042416098
scalar RSUExampleScenario.node[78].veinsmobility 	totalCO2Emission 	725.7874497153
scalar RSUExampleScenario.node[79].veinsmobility 	startTime 	237.1
scalar RSUExampleScenario.node[79].veinsmobility 	totalTime 	302.5
scalar RSUExampleScenario.node[79].veinsmobility 	stopTime 	539.7
scalar RSUExampleScenario.node[79].veinsmobility 	minSpeed 	0.25646649893234
scalar RSUExampleScenario.node[79].veinsmobility 	maxSpeed 	13.99999476494
scalar RSUExampleScenario.node[79].veinsmobility 	totalDistance 	3409.6520756373
scalar RSUExampleScenario.node[79].veinsmobility 	totalCO2Emission 	721.80094882923
scalar RSUExampleScenario.node[80].veinsmobility 	startTime 	240.1
scalar RSUExampleScenario.node[80].veinsmobility 	totalTime 	303.3
scalar RSUExampleScenario.node[80].veinsmobility 	stopTime 	543.5
scalar RSUExampleScenario.node[80].veinsmobility 	minSpeed 	0.25435531458654
scalar RSUExampleScenario.node[80].veinsmobility 	maxSpeed 	13.999953365694
scalar RSUExampleScenario.node[80].veinsmobility 	totalDistance 	3414.2594281056
scalar RSUExampleScenario.node[80].veinsmobility 	totalCO2Emission 	729.7224623522
scalar RSUExampleScenario.node[81].veinsmobility 	startTime 	243.1
scalar RSUExampleScenario.node[81].veinsmobility 	totalTime 	304
scalar RSUExampleScenario.node[81].veinsmobility 	stopTime 	547.2
scalar RSUExampleScenario.node[81].veinsmobility 	minSpeed 	0.25992352514551
scalar RSUExampleScenario.node[81].veinsmobility 	maxSpeed 	13.999858428922
scalar RSUExampleScenario.node[81].veinsmobility 	totalDistance 	3409.9804376598
scalar RSUExampleScenario.node[81].veinsmobility 	totalCO2Emission 	722.92247546288
scalar RSUExampleScenario.node[82].veinsmobility 	startTime 	246.1
scalar RSUExampleScenario.node[82].veinsmobility 	totalTime 	304.7
scalar RSUExampleScenario.node[82].veinsmobility 	stopTime 	550.9
scalar RSUExampleScenario.node[82].veinsmobility 	minSpeed 	0.25616113892919
scalar RSUExampleScenario.node[82].veinsmobility 	maxSpeed 	13.999946874785
scalar RSUExampleScenario.node[82].veinsmobility 	totalDistance 	3414.2935909299
scalar RSUExampleScenario.node[82].veinsmobility 	totalCO2Emission 	725.92770205508
scalar RSUExampleScenario.node[83].veinsmobility 	startTime 	249.1
scalar RSUExampleScenario.node[83].veinsmobility 	totalTime 	305.4
scalar RSUExampleScenario.node[83].veinsmobility 	stopTime 	554.6
scalar RSUExampleScenario.node[83].veinsmobility 	minSpeed 	0.25815266407421
scalar RSUExampleScenario.node[83].veinsmobility 	maxSpeed 	13.999788840769
scalar RSUExampleScenario.node[83].veinsmobility 	totalDistance 	3409.9480566957
scalar RSUExampleScenario.node[83].veinsmobility 	totalCO2Emission 	728.36564282277
scalar RSUExampleScenario.node[84].veinsmobility 	startTime 	252.1
scalar RSUExampleScenario.node[84].veinsmobility 	totalTime 	306.2
scalar RSUExampleScenario.node[84].veinsmobility 	stopTime 	558.4
scalar RSUExampleScenario.node[84].veinsmobility 	minSpeed 	0.25222237377753
scalar RSUExampleScenario.node[84].veinsmobility 	maxSpeed 	13.999978715312
scalar RSUExampleScenario.node[84].veinsmobility 	totalDistance 	3414.2024252607
scalar RSUExampleScenario.node[84].veinsmobility 	totalCO2Emission 	726.31333661592
scalar RSUExampleScenario.node[85].veinsmobility 	startTime 	255.1
scalar RSUExampleScenario.node[85].veinsmobility 	totalTime 	306.8
scalar RSUExampleScenario.node[85].veinsmobility 	stopTime 	562
scalar RSUExampleScenario.node[85].veinsmobility 	minSpeed 	0.25956219508825
scalar RSUExampleScenario.node[85].veinsmobility 	maxSpeed 	13.99991821046
scalar RSUExampleScenario.node[85].veinsmobility 	totalDistance 	3409.7085842587
scalar RSUExampleScenario.node[85].veinsmobility 	totalCO2Emission 	730.87059810611
scalar RSUExampleScenario.node[86].veinsmobility 	startTime 	258.1
scalar RSUExampleScenario.node[86].veinsmobility 	totalTime 	307.5
scalar RSUExampleScenario.node[86].veinsmobility 	stopTime 	565.7
scalar RSUExampleScenario.node[86].veinsmobility 	minSpeed 	0.25928250525007
scalar RSUExampleScenario.node[86].veinsmobility 	maxSpeed 	13.999995744836
scalar RSUExampleScenario.node[86].veinsmobility 	totalDistance 	3414.0791578184
scalar RSUExampleScenario.node[86].veinsmobility 	totalCO2Emission 	728.13988067946
scalar RSUExampleScenario.node[87].veinsmobility 	startTime 	261.1
scalar RSUExampleScenario.node[87].veinsmobility 	totalTime 	308.2
scalar RSUExampleScenario.node[87].veinsmobility 	stopTime 	569.4
scalar RSUExampleScenario.node[87].veinsmobility 	minSpeed 	0.25613799558394
scalar RSUExampleScenario.node[87].veinsmobility 	maxSpeed 	13.999927023922
scalar RSUExampleScenario.node[87].veinsmobility 	totalDistance 	3409.8446494276
scalar RSUExampleScenario.node[87].veinsmobility 	totalCO2Emission 	731.5340378995
scalar RSUExampleScenario.node[88].veinsmobility 	startTime 	264.1
scalar RSUExampleScenario.node[88].veinsmobility 	totalTime 	308.9
scalar RSUExampleScenario.node[88].veinsmobility 	stopTime 	573.1
scalar RSUExampleScenario.node[88].veinsmobility 	minSpeed 	0.25988215329149
scalar RSUExampleScenario.node[88].veinsmobility 	maxSpeed 	13.999880494191
scalar RSUExampleScenario.node[88].veinsmobility 	totalDistance 	3413.8608244283
scalar RSUExampleScenario.node[88].veinsmobility 	totalCO2Emission 	731.0977955171
scalar RSUExampleScenario.node[89].veinsmobility 	startTime 	267.1
scalar RSUExampleScenario.node[89].veinsmobility 	totalTime 	309.5
scalar RSUExampleScenario.node[89].veinsmobility 	stopTime 	576.7
scalar RSUExampleScenario.node[89].veinsmobility 	minSpeed 	0.25963543438609
scalar RSUExampleScenario.node[89].veinsmobility 	maxSpeed 	13.999686962459
scalar RSUExampleScenario.node[89].veinsmobility 	totalDistance 	3409.5426186629
scalar RSUExampleScenario.node[89].veinsmobility 	totalCO2Emission 	731.02159944045
scalar RSUExampleScenario.node[90].veinsmobility 	startTime 	270.1
scalar RSUExampleScenario.node[90].veinsmobility 	totalTime 	310.1
scalar RSUExampleScenario.node[90].veinsmobility 	stopTime 	580.3
scalar RSUExampleScenario.node[90].veinsmobility 	minSpeed 	0.25428618725785
scalar RSUExampleScenario.node[90].veinsmobility 	maxSpeed 	13.999985298992
scalar RSUExampleScenario.node[90].veinsmobility 	totalDistance 	3413.7918765789
scalar RSUExampleScenario.node[90].veinsmobility 	totalCO2Emission 	733.0005529501
scalar RSUExampleScenario.node[91].veinsmobility 	startTime 	273.1
scalar RSUExampleScenario.node[91].veinsmobility 	totalTime 	310.7
scalar RSUExampleScenario.node[91].veinsmobility 	stopTime 	583.9
scalar RSUExampleScenario.node[91].veinsmobility 	minSpeed 	0.2567385890549
scalar RSUExampleScenario.node[91].veinsmobility 	maxSpeed 	13.999919875562
scalar RSUExampleScenario.node[91].veinsmobility 	totalDistance 	3409.3463015191
scalar RSUExampleScenario.node[91].veinsmobility 	totalCO2Emission 	731.95763114006
scalar RSUExampleScenario.node[92].veinsmobility 	startTime 	276.1
scalar RSUExampleScenario.node[92].veinsmobility 	totalTime 	311.4
scalar RSUExampleScenario.node[92].veinsmobility 	stopTime 	587.6
scalar RSUExampleScenario.node[92].veinsmobility 	minSpeed 	0.24877588420664
scalar RSUExampleScenario.node[92].veinsmobility 	maxSpeed 	13.99991311657
scalar RSUExampleScenario.node[92].veinsmobility 	totalDistance 	3413.8732139068
scalar RSUExampleScenario.node[92].veinsmobility 	totalCO2Emission 	733.76435335774
scalar RSUExampleScenario.node[93].veinsmobility 	startTime 	279.1
scalar RSUExampleScenario.node[93].veinsmobility 	totalTime 	312.1
scalar RSUExampleScenario.node[93].veinsmobility 	stopTime 	591.3
scalar RSUExampleScenario.node[93].veinsmobility 	minSpeed 	0.25049865206704
scalar RSUExampleScenario.node[93].veinsmobility 	maxSpeed 	13.999988406152
scalar RSUExampleScenario.node[93].veinsmobility 	totalDistance 	3409.7729831902
scalar RSUExampleScenario.node[93].veinsmobility 	totalCO2Emission 	731.75817471882
scalar RSUExampleScenario.node[94].veinsmobility 	startTime 	282.1
scalar RSUExampleScenario.node[94].veinsmobility 	totalTime 	312.8
scalar RSUExampleScenario.node[94].veinsmobility 	stopTime 	595
scalar RSUExampleScenario.node[94].veinsmobility 	minSpeed 	0.24799198051076
scalar RSUExampleScenario.node[94].veinsmobility 	maxSpeed 	13.999925019667
scalar RSUExampleScenario.node[94].veinsmobility 	totalDistance 	3414.2953808536
scalar RSUExampleScenario.node[94].veinsmobility 	totalCO2Emission 	733.91201916094
scalar RSUExampleScenario.node[95].veinsmobility 	startTime 	285.1
scalar RSUExampleScenario.node[95].veinsmobility 	totalTime 	313.5
scalar RSUExampleScenario.node[95].veinsmobility 	stopTime 	598.7
scalar RSUExampleScenario.node[95].veinsmobility 	minSpeed 	0.25602995064738
scalar RSUExampleScenario.node[95].veinsmobility 	maxSpeed 	13.999974041723
scalar RSUExampleScenario.node[95].veinsmobility 	totalDistance 	3410.1869182147
scalar RSUExampleScenario.node[95].veinsmobility 	totalCO2Emission 	738.15410309988
scalar RSUExampleScenario.node[96].veinsmobility 	startTime 	288.1
scalar RSUExampleScenario.node[96].veinsmobility 	totalTime 	314.3
scalar RSUExampleScenario.node[96].veinsmobility 	stopTime 	602.5
scalar RSUExampleScenario.node[96].veinsmobility 	minSpeed 	0.25743223074498
scalar RSUExampleScenario.node[96].veinsmobility 	maxSpeed 	13.999964113582
scalar RSUExampleScenario.node[96].veinsmobility 	totalDistance 	3414.0645474669
scalar RSUExampleScenario.node[96].veinsmobility 	totalCO2Emission 	734.23858986577
scalar RSUExampleScenario.node[97].veinsmobility 	startTime 	291.1
scalar RSUExampleScenario.node[97].veinsmobility 	totalTime 	315
scalar RSUExampleScenario.node[97].veinsmobility 	stopTime 	606.2
scalar RSUExampleScenario.node[97].veinsmobility 	minSpeed 	0.25170310463686
scalar RSUExampleScenario.node[97].veinsmobility 	maxSpeed 	13.99995532939
scalar RSUExampleScenario.node[97].veinsmobility 	totalDistance 	3409.5819892633
scalar RSUExampleScenario.node[97].veinsmobility 	totalCO2Emission 	736.97373633052
scalar RSUExampleScenario.node[98].veinsmobility 	startTime 	294.1
scalar RSUExampleScenario.node[98].veinsmobility 	totalTime 	315.7
scalar RSUExampleScenario.node[98].veinsmobility 	stopTime 	609.9
scalar RSUExampleScenario.node[98].veinsmobility 	minSpeed 	0.24701055080467
scalar RSUExampleScenario.node[98].veinsmobility 	maxSpeed 	13.999925607773
scalar RSUExampleScenario.node[98].veinsmobility 	totalDistance 	3413.7993355653
scalar RSUExampleScenario.node[98].veinsmobility 	totalCO2Emission 	740.05788718609
scalar RSUExampleScenario.node[99].veinsmobility 	startTime 	297.1
scalar RSUExampleScenario.node[99].veinsmobility 	totalTime 	316.3
scalar RSUExampleScenario.node[99].veinsmobility 	stopTime 	613.5
scalar RSUExampleScenario.node[99].veinsmobility 	minSpeed 	0.25357132107043
scalar RSUExampleScenario.node[99].veinsmobility 	maxSpeed 	13.999760446434
scalar RSUExampleScenario.node[99].veinsmobility 	totalDistance 	3409.5656054641
scalar RSUExampleScenario.node[99].veinsmobility 	totalCO2Emission 	737.67640088447
scalar RSUExampleScenario.node[100].veinsmobility 	startTime 	300.1
scalar RSUExampleScenario.node[100].veinsmobility 	totalTime 	317
scalar RSUExampleScenario.node[100].veinsmobility 	stopTime 	617.2
scalar RSUExampleScenario.node[100].veinsmobility 	minSpeed 	0.25077968167211
scalar RSUExampleScenario.node[100].veinsmobility 	maxSpeed 	13.999970491016
scalar RSUExampleScenario.node[100].veinsmobility 	totalDistance 	3413.8355143375
scalar RSUExampleScenario.node[100].veinsmobility 	totalCO2Emission 	739.33006882767
scalar RSUExampleScenario.node[101].veinsmobility 	startTime 	303.1
scalar RSUExampleScenario.node[101].veinsmobility 	totalTime 	317.7
scalar RSUExampleScenario.node[101].veinsmobility 	stopTime 	620.9
scalar RSUExampleScenario.node[101].veinsmobility 	minSpeed 	0.2499640698086
scalar RSUExampleScenario.node[101].veinsmobility 	maxSpeed 	13.999856304987
scalar RSUExampleScenario.node[101].veinsmobility 	totalDistance 	3409.9976719803
scalar RSUExampleScenario.node[101].veinsmobility 	totalCO2Emission 	738.12444950145
scalar RSUExampleScenario.node[102].veinsmobility 	startTime 	306.1
scalar RSUExampleScenario.node[102].veinsmobility 	totalTime 	318.4
scalar RSUExampleScenario.node[102].veinsmobility 	stopTime 	624.6
scalar RSUExampleScenario.node[102].veinsmobility 	minSpeed 	0.254017898903
scalar RSUExampleScenario.node[102].veinsmobility 	maxSpeed 	13.999928958016
scalar RSUExampleScenario.node[102].veinsmobility 	totalDistance 	3413.6954310311
scalar RSUExampleScenario.node[102].veinsmobility 	totalCO2Emission 	742.0026785647
scalar RSUExampleScenario.node[103].veinsmobility 	startTime 	309.1
scalar RSUExampleScenario.node[103].veinsmobility 	totalTime 	319.1
scalar RSUExampleScenario.node[103].veinsmobility 	stopTime 	628.3
scalar RSUExampleScenario.node[103].veinsmobility 	minSpeed 	0.25899442597129
scalar RSUExampleScenario.node[103].veinsmobility 	maxSpeed 	13.999716704567
scalar RSUExampleScenario.node[103].veinsmobility 	totalDistance 	3409.6933849254
scalar RSUExampleScenario.node[103].veinsmobility 	totalCO2Emission 	744.34105617
scalar RSUExampleScenario.node[104].veinsmobility 	startTime 	312.1
scalar RSUExampleScenario.node[104].veinsmobility 	totalTime 	319.8
scalar RSUExampleScenario.node[104].veinsmobility 	stopTime 	632
scalar RSUExampleScenario.node[104].veinsmobility 	minSpeed 	0.25398935188726
scalar RSUExampleScenario.node[104].veinsmobility 	maxSpeed 	13.999925981916
scalar RSUExampleScenario.node[104].veinsmobility 	totalDistance 	3413.9051386343
scalar RSUExampleScenario.node[104].veinsmobility 	totalCO2Emission 	739.58991101157
scalar RSUExampleScenario.node[105].veinsmobility 	startTime 	315.1
scalar RSUExampleScenario.node[105].veinsmobility 	totalTime 	320.5
scalar RSUExampleScenario.node[105].veinsmobility 	stopTime 	635.7
scalar RSUExampleScenario.node[105].veinsmobility 	minSpeed 	0.25031922990689
scalar RSUExampleScenario.node[105].veinsmobility 	maxSpeed 	13.999958416119
scalar RSUExampleScenario.node[105].veinsmobility 	totalDistance 	3409.9423671032
scalar RSUExampleScenario.node[105].veinsmobility 	totalCO2Emission 	738.82594701942
scalar RSUExampleScenario.node[106].veinsmobility 	startTime 	318.1
scalar RSUExampleScenario.node[106].veinsmobility 	totalTime 	321.3
scalar RSUExampleScenario.node[106].veinsmobility 	stopTime 	639.5
scalar RSUExampleScenario.node[106].veinsmobility 	minSpeed 	0.25541046203044
scalar RSUExampleScenario.node[106].veinsmobility 	maxSpeed 	13.999816162649
scalar RSUExampleScenario.node[106].veinsmobility 	totalDistance 	3414.2490025912
scalar RSUExampleScenario.node[106].veinsmobility 	totalCO2Emission 	740.49870203446
scalar RSUExampleScenario.node[107].veinsmobility 	startTime 	321.1
scalar RSUExampleScenario.node[107].veinsmobility 	totalTime 	322
scalar RSUExampleScenario.node[107].veinsmobility 	stopTime 	643.2
scalar RSUExampleScenario.node[107].veinsmobility 	minSpeed 	0.25379674050165
scalar RSUExampleScenario.node[107].veinsmobility 	maxSpeed 	13.9999997673
scalar RSUExampleScenario.node[107].veinsmobility 	totalDistance 	3409.7582633556
scalar RSUExampleScenario.node[107].veinsmobility 	totalCO2Emission 	744.47226148536
scalar RSUExampleScenario.node[108].veinsmobility 	startTime 	324.1
scalar RSUExampleScenario.node[108].veinsmobility 	totalTime 	322.8
scalar RSUExampleScenario.node[108].veinsmobility 	stopTime 	647
scalar RSUExampleScenario.node[108].veinsmobility 	minSpeed 	0.25292747745663
scalar RSUExampleScenario.node[108].veinsmobility 	maxSpeed 	13.999992104869
scalar RSUExampleScenario.node[108].veinsmobility 	totalDistance 	3414.1731406688
scalar RSUExampleScenario.node[108].veinsmobility 	totalCO2Emission 	742.71729905602
scalar RSUExampleScenario.node[109].veinsmobility 	startTime 	327.1
scalar RSUExampleScenario.node[109].veinsmobility 	totalTime 	323.5
scalar RSUExampleScenario.node[109].veinsmobility 	stopTime 	650.7
scalar RSUExampleScenario.node[109].veinsmobility 	minSpeed 	0.25488840353163
scalar RSUExampleScenario.node[109].veinsmobility 	maxSpeed 	13.999861846056
scalar RSUExampleScenario.node[109].veinsmobility 	totalDistance 	3409.5717901723
scalar RSUExampleScenario.node[109].veinsmobility 	totalCO2Emission 	748.59728783321
scalar RSUExampleScenario.node[110].veinsmobility 	startTime 	330.1
scalar RSUExampleScenario.node[110].veinsmobility 	totalTime 	324.1
scalar RSUExampleScenario.node[110].veinsmobility 	stopTime 	654.3
scalar RSUExampleScenario.node[110].veinsmobility 	minSpeed 	0.24979870698159
scalar RSUExampleScenario.node[110].veinsmobility 	maxSpeed 	13.999994409261
scalar RSUExampleScenario.node[110].veinsmobility 	totalDistance 	3413.8115656236
scalar RSUExampleScenario.node[110].veinsmobility 	totalCO2Emission 	747.66765900887
scalar RSUExampleScenario.node[111].veinsmobility 	startTime 	333.1
scalar RSUExampleScenario.node[111].veinsmobility 	totalTime 	324.8
scalar RSUExampleScenario.node[111].veinsmobility 	stopTime 	658
scalar RSUExampleScenario.node[111].veinsmobility 	minSpeed 	0.25010964037385
scalar RSUExampleScenario.node[111].veinsmobility 	maxSpeed 	13.999803285741
scalar RSUExampleScenario.node[111].veinsmobility 	totalDistance 	3409.6982045048
scalar RSUExampleScenario.node[111].veinsmobility 	totalCO2Emission 	746.71171071954
scalar RSUExampleScenario.node[112].veinsmobility 	startTime 	336.1
scalar RSUExampleScenario.node[112].veinsmobility 	totalTime 	325.5
scalar RSUExampleScenario.node[112].veinsmobility 	stopTime 	661.7
scalar RSUExampleScenario.node[112].veinsmobility 	minSpeed 	0.25115305196098
scalar RSUExampleScenario.node[112].veinsmobility 	maxSpeed 	13.999869625594
scalar RSUExampleScenario.node[112].veinsmobility 	totalDistance 	3413.7671291901
scalar RSUExampleScenario.node[112].veinsmobility 	totalCO2Emission 	746.07260414629
scalar RSUExampleScenario.node[113].veinsmobility 	startTime 	339.1
scalar RSUExampleScenario.node[113].veinsmobility 	totalTime 	326.1
scalar RSUExampleScenario.node[113].veinsmobility 	stopTime 	665.3
scalar RSUExampleScenario.node[113].veinsmobility 	minSpeed 	0.2515546891233
scalar RSUExampleScenario.node[113].veinsmobility 	maxSpeed 	13.999982101996
scalar RSUExampleScenario.node[113].veinsmobility 	totalDistance 	3410.0633766507
scalar RSUExampleScenario.node[113].veinsmobility 	totalCO2Emission 	750.04019709815
scalar RSUExampleScenario.node[114].veinsmobility 	startTime 	342.1
scalar RSUExampleScenario.node[114].veinsmobility 	totalTime 	326.7
scalar RSUExampleScenario.node[114].veinsmobility 	stopTime 	668.9
scalar RSUExampleScenario.node[114].veinsmobility 	minSpeed 	0.25682480473677
scalar RSUExampleScenario.node[114].veinsmobility 	maxSpeed 	13.999948972357
scalar RSUExampleScenario.node[114].veinsmobility 	totalDistance 	3413.8678258414
scalar RSUExampleScenario.node[114].veinsmobility 	totalCO2Emission 	747.70441538655
scalar RSUExampleScenario.node[115].veinsmobility 	startTime 	345.1
scalar RSUExampleScenario.node[115].veinsmobility 	totalTime 	327.4
scalar RSUExampleScenario.node[115].veinsmobility 	stopTime 	672.6
scalar RSUExampleScenario.node[115].veinsmobility 	minSpeed 	0.25218792005256
scalar RSUExampleScenario.node[115].veinsmobility 	maxSpeed 	13.999981871778
scalar RSUExampleScenario.node[115].veinsmobility 	totalDistance 	3409.9369137145
scalar RSUExampleScenario.node[115].veinsmobility 	totalCO2Emission 	748.36884206313
scalar RSUExampleScenario.node[116].veinsmobility 	startTime 	348.1
scalar RSUExampleScenario.node[116].veinsmobility 	totalTime 	328.1
scalar RSUExampleScenario.node[116].veinsmobility 	stopTime 	676.3
scalar RSUExampleScenario.node[116].veinsmobility 	minSpeed 	0.25991286632349
scalar RSUExampleScenario.node[116].veinsmobility 	maxSpeed 	13.999871041076
scalar RSUExampleScenario.node[116].veinsmobility 	totalDistance 	3414.2055669444
scalar RSUExampleScenario.node[116].veinsmobility 	totalCO2Emission 	749.57439802451
scalar RSUExampleScenario.node[117].veinsmobility 	startTime 	351.1
scalar RSUExampleScenario.node[117].veinsmobility 	totalTime 	328.8
scalar RSUExampleScenario.node[117].veinsmobility 	stopTime 	680
scalar RSUExampleScenario.node[117].veinsmobility 	minSpeed 	0.24715032505407
scalar RSUExampleScenario.node[117].veinsmobility 	maxSpeed 	13.999999153616
scalar RSUExampleScenario.node[117].veinsmobility 	totalDistance 	3409.9544682282
scalar RSUExampleScenario.node[117].veinsmobility 	totalCO2Emission 	749.60331824158
scalar RSUExampleScenario.node[118].veinsmobility 	startTime 	354.1
scalar RSUExampleScenario.node[118].veinsmobility 	totalTime 	329.5
scalar RSUExampleScenario.node[118].veinsmobility 	stopTime 	683.7
scalar RSUExampleScenario.node[118].veinsmobility 	minSpeed 	0.2567724220925
scalar RSUExampleScenario.node[118].veinsmobility 	maxSpeed 	13.999991533621
scalar RSUExampleScenario.node[118].veinsmobility 	totalDistance 	3413.7198381209
scalar RSUExampleScenario.node[118].veinsmobility 	totalCO2Emission 	749.64754178804
scalar RSUExampleScenario.node[119].veinsmobility 	startTime 	357.1
scalar RSUExampleScenario.node[119].veinsmobility 	totalTime 	330.1
scalar RSUExampleScenario.node[119].veinsmobility 	stopTime 	687.3
scalar RSUExampleScenario.node[119].veinsmobility 	minSpeed 	0.25324413037184
scalar RSUExampleScenario.node[119].veinsmobility 	maxSpeed 	13.99992265159
scalar RSUExampleScenario.node[119].veinsmobility 	totalDistance 	3409.7780963618
scalar RSUExampleScenario.node[119].veinsmobility 	totalCO2Emission 	749.26757560044
scalar RSUExampleScenario.node[120].veinsmobility 	startTime 	360.1
scalar RSUExampleScenario.node[120].veinsmobility 	totalTime 	330.8
scalar RSUExampleScenario.node[120].veinsmobility 	stopTime 	691
scalar RSUExampleScenario.node[120].veinsmobility 	minSpeed 	0.25333531584474
scalar RSUExampleScenario.node[120].veinsmobility 	maxSpeed 	13.999834431314
scalar RSUExampleScenario.node[120].veinsmobility 	totalDistance 	3414.150600342
scalar RSUExampleScenario.node[120].veinsmobility 	totalCO2Emission 	756.08994079838
scalar RSUExampleScenario.node[121].veinsmobility 	startTime 	363.1
scalar RSUExampleScenario.node[121].veinsmobility 	totalTime 	331.5
scalar RSUExampleScenario.node[121].veinsmobility 	stopTime 	694.7
scalar RSUExampleScenario.node[121].veinsmobility 	minSpeed 	0.25913391359197
scalar RSUExampleScenario.node[121].veinsmobility 	maxSpeed 	13.999955145875
scalar RSUExampleScenario.node[121].veinsmobility 	totalDistance 	3409.9763048904
scalar RSUExampleScenario.node[121].veinsmobility 	totalCO2Emission 	752.96592279699
scalar RSUExampleScenario.node[122].veinsmobility 	startTime 	366.1
scalar RSUExampleScenario.node[122].veinsmobility 	totalTime 	332.2
scalar RSUExampleScenario.node[122].veinsmobility 	stopTime 	698.4
scalar RSUExampleScenario.node[122].veinsmobility 	minSpeed 	0.24825201539486
scalar RSUExampleScenario.node[122].veinsmobility 	maxSpeed 	13.99999137308
scalar RSUExampleScenario.node[122].veinsmobility 	totalDistance 	3414.3495330469
scalar RSUExampleScenario.node[122].veinsmobility 	totalCO2Emission 	757.44561904394
scalar RSUExampleScenario.node[123].veinsmobility 	startTime 	369.1
scalar RSUExampleScenario.node[123].veinsmobility 	totalTime 	332.9
scalar RSUExampleScenario.node[123].veinsmobility 	stopTime 	702.1
scalar RSUExampleScenario.node[123].veinsmobility 	minSpeed 	0.24886820192914
scalar RSUExampleScenario.node[123].veinsmobility 	maxSpeed 	13.999870605278
scalar RSUExampleScenario.node[123].veinsmobility 	totalDistance 	3410.0741975887
scalar RSUExampleScenario.node[123].veinsmobility 	totalCO2Emission 	754.66509310259
scalar RSUExampleScenario.node[124].veinsmobility 	startTime 	372.1
scalar RSUExampleScenario.node[124].veinsmobility 	totalTime 	333.6
scalar RSUExampleScenario.node[124].veinsmobility 	stopTime 	705.8
scalar RSUExampleScenario.node[124].veinsmobility 	minSpeed 	0.24867811582563
scalar RSUExampleScenario.node[124].veinsmobility 	maxSpeed 	13.999929837906
scalar RSUExampleScenario.node[124].veinsmobility 	totalDistance 	3414.018468434
scalar RSUExampleScenario.node[124].veinsmobility 	totalCO2Emission 	755.58199271258
scalar RSUExampleScenario.node[125].veinsmobility 	startTime 	375.1
scalar RSUExampleScenario.node[125].veinsmobility 	totalTime 	334.3
scalar RSUExampleScenario.node[125].veinsmobility 	stopTime 	709.5
scalar RSUExampleScenario.node[125].veinsmobility 	minSpeed 	0.24814024843159
scalar RSUExampleScenario.node[125].veinsmobility 	maxSpeed 	13.999980897603
scalar RSUExampleScenario.node[125].veinsmobility 	totalDistance 	3409.8320399193
scalar RSUExampleScenario.node[125].veinsmobility 	totalCO2Emission 	754.33184158528
scalar RSUExampleScenario.node[126].veinsmobility 	startTime 	378.1
scalar RSUExampleScenario.node[126].veinsmobility 	totalTime 	334.9
scalar RSUExampleScenario.node[126].veinsmobility 	stopTime 	713.1
scalar RSUExampleScenario.node[126].veinsmobility 	minSpeed 	0.25934367391514
scalar RSUExampleScenario.node[126].veinsmobility 	maxSpeed 	13.99986484183
scalar RSUExampleScenario.node[126].veinsmobility 	totalDistance 	3413.5781847291
scalar RSUExampleScenario.node[126].veinsmobility 	totalCO2Emission 	755.09027497017
scalar RSUExampleScenario.node[127].veinsmobility 	startTime 	381.1
scalar RSUExampleScenario.node[127].veinsmobility 	totalTime 	335.7
scalar RSUExampleScenario.node[127].veinsmobility 	stopTime 	716.9
scalar RSUExampleScenario.node[127].veinsmobility 	minSpeed 	0.25696451395843
scalar RSUExampleScenario.node[127].veinsmobility 	maxSpeed 	13.999970121414
scalar RSUExampleScenario.node[127].veinsmobility 	totalDistance 	3409.8511783807
scalar RSUExampleScenario.node[127].veinsmobility 	totalCO2Emission 	757.02838544751
scalar RSUExampleScenario.node[128].veinsmobility 	startTime 	384.1
scalar RSUExampleScenario.node[128].veinsmobility 	totalTime 	336.3
scalar RSUExampleScenario.node[128].veinsmobility 	stopTime 	720.5
scalar RSUExampleScenario.node[128].veinsmobility 	minSpeed 	0.24948559311708
scalar RSUExampleScenario.node[128].veinsmobility 	maxSpeed 	13.999961745748
scalar RSUExampleScenario.node[128].veinsmobility 	totalDistance 	3413.6270271845
scalar RSUExampleScenario.node[128].veinsmobility 	totalCO2Emission 	760.73152245516
scalar RSUExampleScenario.node[129].veinsmobility 	startTime 	387.1
scalar RSUExampleScenario.node[129].veinsmobility 	totalTime 	337
scalar RSUExampleScenario.node[129].veinsmobility 	stopTime 	724.2
scalar RSUExampleScenario.node[129].veinsmobility 	minSpeed 	0.24795091598271
scalar RSUExampleScenario.node[129].veinsmobility 	maxSpeed 	13.999680423788
scalar RSUExampleScenario.node[129].veinsmobility 	totalDistance 	3410.1748921986
scalar RSUExampleScenario.node[129].veinsmobility 	totalCO2Emission 	758.92511527159
scalar RSUExampleScenario.node[130].veinsmobility 	startTime 	390.1
scalar RSUExampleScenario.node[130].veinsmobility 	totalTime 	337.7
scalar RSUExampleScenario.node[130].veinsmobility 	stopTime 	727.9
scalar RSUExampleScenario.node[130].veinsmobility 	minSpeed 	0.24926441309834
scalar RSUExampleScenario.node[130].veinsmobility 	maxSpeed 	13.999960131284
scalar RSUExampleScenario.node[130].veinsmobility 	totalDistance 	3414.0510029213
scalar RSUExampleScenario.node[130].veinsmobility 	totalCO2Emission 	760.89407596105
scalar RSUExampleScenario.node[131].veinsmobility 	startTime 	393.1
scalar RSUExampleScenario.node[131].veinsmobility 	totalTime 	338.4
scalar RSUExampleScenario.node[131].veinsmobility 	stopTime 	731.6
scalar RSUExampleScenario.node[131].veinsmobility 	minSpeed 	0.24803016739199
scalar RSUExampleScenario.node[131].veinsmobility 	maxSpeed 	13.99994423233
scalar RSUExampleScenario.node[131].veinsmobility 	totalDistance 	3410.1630727584
scalar RSUExampleScenario.node[131].veinsmobility 	totalCO2Emission 	760.48557757175
scalar RSUExampleScenario.node[132].veinsmobility 	startTime 	396.1
scalar RSUExampleScenario.node[132].veinsmobility 	totalTime 	339
scalar RSUExampleScenario.node[132].veinsmobility 	stopTime 	735.2
scalar RSUExampleScenario.node[132].veinsmobility 	minSpeed 	0.25119056056091
scalar RSUExampleScenario.node[132].veinsmobility 	maxSpeed 	13.999887122759
scalar RSUExampleScenario.node[132].veinsmobility 	totalDistance 	3413.6524372119
scalar RSUExampleScenario.node[132].veinsmobility 	totalCO2Emission 	762.79346753596
scalar RSUExampleScenario.node[133].veinsmobility 	startTime 	399.1
scalar RSUExampleScenario.node[133].veinsmobility 	totalTime 	339.7
scalar RSUExampleScenario.node[133].veinsmobility 	stopTime 	738.9
scalar RSUExampleScenario.node[133].veinsmobility 	minSpeed 	0.25026291768532
scalar RSUExampleScenario.node[133].veinsmobility 	maxSpeed 	13.999968235597
scalar RSUExampleScenario.node[133].veinsmobility 	totalDistance 	3409.7803382182
scalar RSUExampleScenario.node[133].veinsmobility 	totalCO2Emission 	763.46041095972
scalar RSUExampleScenario.node[134].veinsmobility 	startTime 	402.1
scalar RSUExampleScenario.node[134].veinsmobility 	totalTime 	340.5
scalar RSUExampleScenario.node[134].veinsmobility 	stopTime 	742.7
scalar RSUExampleScenario.node[134].veinsmobility 	minSpeed 	0.25181889321026
scalar RSUExampleScenario.node[134].veinsmobility 	maxSpeed 	13.999961153374
scalar RSUExampleScenario.node[134].veinsmobility 	totalDistance 	3414.1926740965
scalar RSUExampleScenario.node[134].veinsmobility 	totalCO2Emission 	760.71252876251
scalar RSUExampleScenario.node[135].veinsmobility 	startTime 	405.1
scalar RSUExampleScenario.node[135].veinsmobility 	totalTime 	341.2
scalar RSUExampleScenario.node[135].veinsmobility 	stopTime 	746.4
scalar RSUExampleScenario.node[135].veinsmobility 	minSpeed 	0.24973248002492
scalar RSUExampleScenario.node[135].veinsmobility 	maxSpeed 	13.999858283726
scalar RSUExampleScenario.node[135].veinsmobility 	totalDistance 	3409.6760925244
scalar RSUExampleScenario.node[135].veinsmobility 	totalCO2Emission 	761.26169005526
scalar RSUExampleScenario.node[136].veinsmobility 	startTime 	408.1
scalar RSUExampleScenario.node[136].veinsmobility 	totalTime 	341.9
scalar RSUExampleScenario.node[136].veinsmobility 	stopTime 	750.1
scalar RSUExampleScenario.node[136].veinsmobility 	minSpeed 	0.25031886835885
scalar RSUExampleScenario.node[136].veinsmobility 	maxSpeed 	13.999755863468
scalar RSUExampleScenario.node[136].veinsmobility 	totalDistance 	3413.8945033972
scalar RSUExampleScenario.node[136].veinsmobility 	totalCO2Emission 	764.67734434231
scalar RSUExampleScenario.node[137].veinsmobility 	startTime 	411.1
scalar RSUExampleScenario.node[137].veinsmobility 	totalTime 	342.6
scalar RSUExampleScenario.node[137].veinsmobility 	stopTime 	753.8
scalar RSUExampleScenario.node[137].veinsmobility 	minSpeed 	0.25194751688279
scalar RSUExampleScenario.node[137].veinsmobility 	maxSpeed 	13.99994360321
scalar RSUExampleScenario.node[137].veinsmobility 	totalDistance 	3409.9941024706
scalar RSUExampleScenario.node[137].veinsmobility 	totalCO2Emission 	767.73436063649
scalar RSUExampleScenario.node[138].veinsmobility 	startTime 	414.1
scalar RSUExampleScenario.node[138].veinsmobility 	totalTime 	343.3
scalar RSUExampleScenario.node[138].veinsmobility 	stopTime 	757.5
scalar RSUExampleScenario.node[138].veinsmobility 	minSpeed 	0.25268985618092
scalar RSUExampleScenario.node[138].veinsmobility 	maxSpeed 	13.999830778968
scalar RSUExampleScenario.node[138].veinsmobility 	totalDistance 	3413.8334241636
scalar RSUExampleScenario.node[138].veinsmobility 	totalCO2Emission 	763.94766107561
scalar RSUExampleScenario.node[139].veinsmobility 	startTime 	417.1
scalar RSUExampleScenario.node[139].veinsmobility 	totalTime 	344
scalar RSUExampleScenario.node[139].veinsmobility 	stopTime 	761.2
scalar RSUExampleScenario.node[139].veinsmobility 	minSpeed 	0.2492896039153
scalar RSUExampleScenario.node[139].veinsmobility 	maxSpeed 	13.999869451523
scalar RSUExampleScenario.node[139].veinsmobility 	totalDistance 	3410.2645474491
scalar RSUExampleScenario.node[139].veinsmobility 	totalCO2Emission 	765.90884272356
scalar RSUExampleScenario.node[140].veinsmobility 	startTime 	420.1
scalar RSUExampleScenario.node[140].veinsmobility 	totalTime 	344.7
scalar RSUExampleScenario.node[140].veinsmobility 	stopTime 	764.9
scalar RSUExampleScenario.node[140].veinsmobility 	minSpeed 	0.24903850628901
scalar RSUExampleScenario.node[140].veinsmobility 	maxSpeed 	13.999981767475
scalar RSUExampleScenario.node[140].veinsmobility 	totalDistance 	3414.3784833464
scalar RSUExampleScenario.node[140].veinsmobility 	totalCO2Emission 	766.99441544336
scalar RSUExampleScenario.node[141].veinsmobility 	startTime 	423.1
scalar RSUExampleScenario.node[141].veinsmobility 	totalTime 	345.3
scalar RSUExampleScenario.node[141].veinsmobility 	stopTime 	768.5
scalar RSUExampleScenario.node[141].veinsmobility 	minSpeed 	0.24963702668156
scalar RSUExampleScenario.node[141].veinsmobility 	maxSpeed 	13.999861134607
scalar RSUExampleScenario.node[141].veinsmobility 	totalDistance 	3409.507968078
scalar RSUExampleScenario.node[141].veinsmobility 	totalCO2Emission 	768.00044799259
scalar RSUExampleScenario.node[142].veinsmobility 	startTime 	426.1
scalar RSUExampleScenario.node[142].veinsmobility 	totalTime 	346
scalar RSUExampleScenario.node[142].veinsmobility 	stopTime 	772.2
scalar RSUExampleScenario.node[142].veinsmobility 	minSpeed 	0.25592335827439
scalar RSUExampleScenario.node[142].veinsmobility 	maxSpeed 	13.999959343227
scalar RSUExampleScenario.node[142].veinsmobility 	totalDistance 	3414.0234836441
scalar RSUExampleScenario.node[142].veinsmobility 	totalCO2Emission 	768.45864112147
scalar RSUExampleScenario.node[143].veinsmobility 	startTime 	429.1
scalar RSUExampleScenario.node[143].veinsmobility 	totalTime 	346.7
scalar RSUExampleScenario.node[143].veinsmobility 	stopTime 	775.9
scalar RSUExampleScenario.node[143].veinsmobility 	minSpeed 	0.25682519587781
scalar RSUExampleScenario.node[143].veinsmobility 	maxSpeed 	13.999867912608
scalar RSUExampleScenario.node[143].veinsmobility 	totalDistance 	3409.7690243747
scalar RSUExampleScenario.node[143].veinsmobility 	totalCO2Emission 	768.24240064763
scalar RSUExampleScenario.node[144].veinsmobility 	startTime 	432.1
scalar RSUExampleScenario.node[144].veinsmobility 	totalTime 	347.3
scalar RSUExampleScenario.node[144].veinsmobility 	stopTime 	779.5
scalar RSUExampleScenario.node[144].veinsmobility 	minSpeed 	0.25520178661169
scalar RSUExampleScenario.node[144].veinsmobility 	maxSpeed 	13.999950700295
scalar RSUExampleScenario.node[144].veinsmobility 	totalDistance 	3413.6219044877
scalar RSUExampleScenario.node[144].veinsmobility 	totalCO2Emission 	767.63939108835
scalar RSUExampleScenario.node[145].veinsmobility 	startTime 	435.1
scalar RSUExampleScenario.node[145].veinsmobility 	totalTime 	348
scalar RSUExampleScenario.node[145].veinsmobility 	stopTime 	783.2
scalar RSUExampleScenario.node[145].veinsmobility 	minSpeed 	0.25693641726673
scalar RSUExampleScenario.node[145].veinsmobility 	maxSpeed 	13.99990767027
scalar RSUExampleScenario.node[145].veinsmobility 	totalDistance 	3409.6330105714
scalar RSUExampleScenario.node[145].veinsmobility 	totalCO2Emission 	772.33279846797
scalar RSUExampleScenario.node[146].veinsmobility 	startTime 	438.1
scalar RSUExampleScenario.node[146].veinsmobility 	totalTime 	348.7
scalar RSUExampleScenario.node[146].veinsmobility 	stopTime 	786.9
scalar RSUExampleScenario.node[146].veinsmobility 	minSpeed 	0.2556113988338
scalar RSUExampleScenario.node[146].veinsmobility 	maxSpeed 	13.999977278248
scalar RSUExampleScenario.node[146].veinsmobility 	totalDistance 	3414.2713903502
scalar RSUExampleScenario.node[146].veinsmobility 	totalCO2Emission 	769.69225978659
scalar RSUExampleScenario.node[147].veinsmobility 	startTime 	441.1
scalar RSUExampleScenario.node[147].veinsmobility 	totalTime 	349.4
scalar RSUExampleScenario.node[147].veinsmobility 	stopTime 	790.6
scalar RSUExampleScenario.node[147].veinsmobility 	minSpeed 	0.25518986864155
scalar RSUExampleScenario.node[147].veinsmobility 	maxSpeed 	13.999929259394
scalar RSUExampleScenario.node[147].veinsmobility 	totalDistance 	3409.6641032119
scalar RSUExampleScenario.node[147].veinsmobility 	totalCO2Emission 	774.2918742209
scalar RSUExampleScenario.node[148].veinsmobility 	startTime 	444.1
scalar RSUExampleScenario.node[148].veinsmobility 	totalTime 	350
scalar RSUExampleScenario.node[148].veinsmobility 	stopTime 	794.2
scalar RSUExampleScenario.node[148].veinsmobility 	minSpeed 	0.25120508110244
scalar RSUExampleScenario.node[148].veinsmobility 	maxSpeed 	13.999974315346
scalar RSUExampleScenario.node[148].veinsmobility 	totalDistance 	3413.6721807749
scalar RSUExampleScenario.node[148].veinsmobility 	totalCO2Emission 	772.29309713624
scalar RSUExampleScenario.node[149].veinsmobility 	startTime 	447.1
scalar RSUExampleScenario.node[149].veinsmobility 	totalTime 	350.7
scalar RSUExampleScenario.node[149].veinsmobility 	stopTime 	797.9
scalar RSUExampleScenario.node[149].veinsmobility 	minSpeed 	0.25104218481947
scalar RSUExampleScenario.node[149].veinsmobility 	maxSpeed 	13.999907143335
scalar RSUExampleScenario.node[149].veinsmobility 	totalDistance 	3410.0317120961
scalar RSUExampleScenario.node[149].veinsmobility 	totalCO2Emission 	770.2342022576
scalar RSUExampleScenario.node[150].veinsmobility 	startTime 	450.1
scalar RSUExampleScenario.node[150].veinsmobility 	totalTime 	351.4
scalar RSUExampleScenario.node[150].veinsmobility 	stopTime 	801.6
scalar RSUExampleScenario.node[150].veinsmobility 	minSpeed 	0.24904251937266
scalar RSUExampleScenario.node[150].veinsmobility 	maxSpeed 	13.999949936876
scalar RSUExampleScenario.node[150].veinsmobility 	totalDistance 	3414.3973511173
scalar RSUExampleScenario.node[150].veinsmobility 	totalCO2Emission 	775.74326106645
scalar RSUExampleScenario.node[151].veinsmobility 	startTime 	453.1
scalar RSUExampleScenario.node[151].veinsmobility 	totalTime 	352.1
scalar RSUExampleScenario.node[151].veinsmobility 	stopTime 	805.3
scalar RSUExampleScenario.node[151].veinsmobility 	minSpeed 	0.25385649545514
scalar RSUExampleScenario.node[151].veinsmobility 	maxSpeed 	13.999968753785
scalar RSUExampleScenario.node[151].veinsmobility 	totalDistance 	3410.1459565211
scalar RSUExampleScenario.node[151].veinsmobility 	totalCO2Emission 	772.92646615839
scalar RSUExampleScenario.node[152].veinsmobility 	startTime 	456.1
scalar RSUExampleScenario.node[152].veinsmobility 	totalTime 	352.8
scalar RSUExampleScenario.node[152].veinsmobility 	stopTime 	809
scalar RSUExampleScenario.node[152].veinsmobility 	minSpeed 	0.25972170024924
scalar RSUExampleScenario.node[152].veinsmobility 	maxSpeed 	13.999978465298
scalar RSUExampleScenario.node[152].veinsmobility 	totalDistance 	3414.0262334577
scalar RSUExampleScenario.node[152].veinsmobility 	totalCO2Emission 	770.59731239468
[...]
scalar RSUExampleScenario.node[628].veinsmobility 	totalCO2Emission 	324.75578752802
scalar RSUExampleScenario.node[629].veinsmobility 	startTime 	1887.1
scalar RSUExampleScenario.node[629].veinsmobility 	totalTime 	112.8
scalar RSUExampleScenario.node[629].veinsmobility 	stopTime 	2000
scalar RSUExampleScenario.node[629].veinsmobility 	minSpeed 	0.25611597373709
scalar RSUExampleScenario.node[629].veinsmobility 	maxSpeed 	13.999785446669
scalar RSUExampleScenario.node[629].veinsmobility 	totalDistance 	1363.5170046096
scalar RSUExampleScenario.node[629].veinsmobility 	totalCO2Emission 	318.8795132129
scalar RSUExampleScenario.node[630].veinsmobility 	startTime 	1890.1
scalar RSUExampleScenario.node[630].veinsmobility 	totalTime 	109.8
scalar RSUExampleScenario.node[630].veinsmobility 	stopTime 	2000
scalar RSUExampleScenario.node[630].veinsmobility 	minSpeed 	0.25425335696223
scalar RSUExampleScenario.node[630].veinsmobility 	maxSpeed 	13.99991169113
scalar RSUExampleScenario.node[630].veinsmobility 	totalDistance 	1321.1198344565
scalar RSUExampleScenario.node[630].veinsmobility 	totalCO2Emission 	311.63039298577
scalar RSUExampleScenario.node[631].veinsmobility 	startTime 	1893.1
scalar RSUExampleScenario.node[631].veinsmobility 	totalTime 	106.8
scalar RSUExampleScenario.node[631].veinsmobility 	stopTime 	2000
scalar RSUExampleScenario.node[631].veinsmobility 	minSpeed 	0.25189657483716
scalar RSUExampleScenario.node[631].veinsmobility 	maxSpeed 	13.999714286095
scalar RSUExampleScenario.node[631].veinsmobility 	totalDistance 	1280.5214850949
scalar RSUExampleScenario.node[631].veinsmobility 	totalCO2Emission 	302.68101437854
scalar RSUExampleScenario.node[632].veinsmobility 	startTime 	1896.1
scalar RSUExampleScenario.node[632].veinsmobility 	totalTime 	103.8
scalar RSUExampleScenario.node[632].veinsmobility 	stopTime 	2000
scalar RSUExampleScenario.node[632].veinsmobility 	minSpeed 	0.24766132269334
scalar RSUExampleScenario.node[632].veinsmobility 	maxSpeed 	13.999595825591
scalar RSUExampleScenario.node[632].veinsmobility 	totalDistance 	1237.769420319
scalar RSUExampleScenario.node[632].veinsmobility 	totalCO2Emission 	294.67441947122
scalar RSUExampleScenario.node[633].veinsmobility 	startTime 	1899.1
scalar RSUExampleScenario.node[633].veinsmobility 	totalTime 	100.8
scalar RSUExampleScenario.node[633].veinsmobility 	stopTime 	2000
scalar RSUExampleScenario.node[633].veinsmobility 	minSpeed 	0.24880301712337
scalar RSUExampleScenario.node[633].veinsmobility 	maxSpeed 	13.999770857017
scalar RSUExampleScenario.node[633].veinsmobility 	totalDistance 	1194.7975843642
scalar RSUExampleScenario.node[633].veinsmobility 	totalCO2Emission 	288.03593018742
scalar RSUExampleScenario.node[634].veinsmobility 	startTime 	1902.1
scalar RSUExampleScenario.node[634].veinsmobility 	totalTime 	97.8
scalar RSUExampleScenario.node[634].veinsmobility 	stopTime 	2000
scalar RSUExampleScenario.node[634].veinsmobility 	minSpeed 	0.2529190076394
scalar RSUExampleScenario.node[634].veinsmobility 	maxSpeed 	13.999954155446
scalar RSUExampleScenario.node[634].veinsmobility 	totalDistance 	1154.0715374312
scalar RSUExampleScenario.node[634].veinsmobility 	totalCO2Emission 	279.45469235683
scalar RSUExampleScenario.node[635].veinsmobility 	startTime 	1905.1
scalar RSUExampleScenario.node[635].veinsmobility 	totalTime 	94.8
scalar RSUExampleScenario.node[635].veinsmobility 	stopTime 	2000
scalar RSUExampleScenario.node[635].veinsmobility 	minSpeed 	0.25914890280296
scalar RSUExampleScenario.node[635].veinsmobility 	maxSpeed 	13.998963236869
scalar RSUExampleScenario.node[635].veinsmobility 	totalDistance 	1111.7741809239
scalar RSUExampleScenario.node[635].veinsmobility 	totalCO2Emission 	274.45097094128
scalar RSUExampleScenario.node[636].veinsmobility 	startTime 	1908.1
scalar RSUExampleScenario.node[636].veinsmobility 	totalTime 	91.8
scalar RSUExampleScenario.node[636].veinsmobility 	stopTime 	2000
scalar RSUExampleScenario.node[636].veinsmobility 	minSpeed 	0.24757611140911
scalar RSUExampleScenario.node[636].veinsmobility 	maxSpeed 	13.99989198985
scalar RSUExampleScenario.node[636].veinsmobility 	totalDistance 	1072.0942805509
scalar RSUExampleScenario.node[636].veinsmobility 	totalCO2Emission 	267.45921578529
scalar RSUExampleScenario.node[637].veinsmobility 	startTime 	1911.1
scalar RSUExampleScenario.node[637].veinsmobility 	totalTime 	88.8
scalar RSUExampleScenario.node[637].veinsmobility 	stopTime 	2000
scalar RSUExampleScenario.node[637].veinsmobility 	minSpeed 	0.25614396212995
scalar RSUExampleScenario.node[637].veinsmobility 	maxSpeed 	13.999181444999
scalar RSUExampleScenario.node[637].veinsmobility 	totalDistance 	1028.7720335146
scalar RSUExampleScenario.node[637].veinsmobility 	totalCO2Emission 	259.98241262902
scalar RSUExampleScenario.node[638].veinsmobility 	startTime 	1914.1
scalar RSUExampleScenario.node[638].veinsmobility 	totalTime 	85.8
scalar RSUExampleScenario.node[638].veinsmobility 	stopTime 	2000
scalar RSUExampleScenario.node[638].veinsmobility 	minSpeed 	0.24758755520405
scalar RSUExampleScenario.node[638].veinsmobility 	maxSpeed 	13.999783525348
scalar RSUExampleScenario.node[638].veinsmobility 	totalDistance 	987.69330435676
scalar RSUExampleScenario.node[638].veinsmobility 	totalCO2Emission 	253.54310976741
scalar RSUExampleScenario.node[639].veinsmobility 	startTime 	1917.1
scalar RSUExampleScenario.node[639].veinsmobility 	totalTime 	82.8
scalar RSUExampleScenario.node[639].veinsmobility 	stopTime 	2000
scalar RSUExampleScenario.node[639].veinsmobility 	minSpeed 	0.25330350580718
scalar RSUExampleScenario.node[639].veinsmobility 	maxSpeed 	13.999689770571
scalar RSUExampleScenario.node[639].veinsmobility 	totalDistance 	954.11392826921
scalar RSUExampleScenario.node[639].veinsmobility 	totalCO2Emission 	232.0524180148
scalar RSUExampleScenario.node[640].veinsmobility 	startTime 	1920.1
scalar RSUExampleScenario.node[640].veinsmobility 	totalTime 	79.8
scalar RSUExampleScenario.node[640].veinsmobility 	stopTime 	2000
scalar RSUExampleScenario.node[640].veinsmobility 	minSpeed 	0.2526260405716
scalar RSUExampleScenario.node[640].veinsmobility 	maxSpeed 	13.999807963022
scalar RSUExampleScenario.node[640].veinsmobility 	totalDistance 	937.81163368565
scalar RSUExampleScenario.node[640].veinsmobility 	totalCO2Emission 	223.02657515209
scalar RSUExampleScenario.node[641].veinsmobility 	startTime 	1923.1
scalar RSUExampleScenario.node[641].veinsmobility 	totalTime 	76.8
scalar RSUExampleScenario.node[641].veinsmobility 	stopTime 	2000
scalar RSUExampleScenario.node[641].veinsmobility 	minSpeed 	0.25628059398453
scalar RSUExampleScenario.node[641].veinsmobility 	maxSpeed 	13.999158216864
scalar RSUExampleScenario.node[641].veinsmobility 	totalDistance 	913.8535399406
scalar RSUExampleScenario.node[641].veinsmobility 	totalCO2Emission 	217.48746935669
scalar RSUExampleScenario.node[642].veinsmobility 	startTime 	1926.1
scalar RSUExampleScenario.node[642].veinsmobility 	totalTime 	73.8
scalar RSUExampleScenario.node[642].veinsmobility 	stopTime 	2000
scalar RSUExampleScenario.node[642].veinsmobility 	minSpeed 	0.25898515033256
scalar RSUExampleScenario.node[642].veinsmobility 	maxSpeed 	13.99955568976
scalar RSUExampleScenario.node[642].veinsmobility 	totalDistance 	874.63992134179
scalar RSUExampleScenario.node[642].veinsmobility 	totalCO2Emission 	213.22499562279
scalar RSUExampleScenario.node[643].veinsmobility 	startTime 	1929.1
scalar RSUExampleScenario.node[643].veinsmobility 	totalTime 	70.8
scalar RSUExampleScenario.node[643].veinsmobility 	stopTime 	2000
scalar RSUExampleScenario.node[643].veinsmobility 	minSpeed 	0.25479333558446
scalar RSUExampleScenario.node[643].veinsmobility 	maxSpeed 	13.9996614184
scalar RSUExampleScenario.node[643].veinsmobility 	totalDistance 	832.77594696642
scalar RSUExampleScenario.node[643].veinsmobility 	totalCO2Emission 	208.63786642758
scalar RSUExampleScenario.node[644].veinsmobility 	startTime 	1932.1
scalar RSUExampleScenario.node[644].veinsmobility 	totalTime 	67.8
scalar RSUExampleScenario.node[644].veinsmobility 	stopTime 	2000
scalar RSUExampleScenario.node[644].veinsmobility 	minSpeed 	0.25627503078664
scalar RSUExampleScenario.node[644].veinsmobility 	maxSpeed 	13.999919769473
scalar RSUExampleScenario.node[644].veinsmobility 	totalDistance 	788.73474543484
scalar RSUExampleScenario.node[644].veinsmobility 	totalCO2Emission 	199.63065305202
scalar RSUExampleScenario.node[645].veinsmobility 	startTime 	1935.1
scalar RSUExampleScenario.node[645].veinsmobility 	totalTime 	64.8
scalar RSUExampleScenario.node[645].veinsmobility 	stopTime 	2000
scalar RSUExampleScenario.node[645].veinsmobility 	minSpeed 	0.24967164495541
scalar RSUExampleScenario.node[645].veinsmobility 	maxSpeed 	13.999962007536
scalar RSUExampleScenario.node[645].veinsmobility 	totalDistance 	746.57367818097
scalar RSUExampleScenario.node[645].veinsmobility 	totalCO2Emission 	193.65191906293
scalar RSUExampleScenario.node[646].veinsmobility 	startTime 	1938.1
scalar RSUExampleScenario.node[646].veinsmobility 	totalTime 	61.8
scalar RSUExampleScenario.node[646].veinsmobility 	stopTime 	2000
scalar RSUExampleScenario.node[646].veinsmobility 	minSpeed 	0.25474210122274
scalar RSUExampleScenario.node[646].veinsmobility 	maxSpeed 	13.99975989368
scalar RSUExampleScenario.node[646].veinsmobility 	totalDistance 	705.55175624902
scalar RSUExampleScenario.node[646].veinsmobility 	totalCO2Emission 	187.61017128014
scalar RSUExampleScenario.node[647].veinsmobility 	startTime 	1941.1
scalar RSUExampleScenario.node[647].veinsmobility 	totalTime 	58.8
scalar RSUExampleScenario.node[647].veinsmobility 	stopTime 	2000
scalar RSUExampleScenario.node[647].veinsmobility 	minSpeed 	0.25444122227049
scalar RSUExampleScenario.node[647].veinsmobility 	maxSpeed 	13.999307705532
scalar RSUExampleScenario.node[647].veinsmobility 	totalDistance 	663.63566381812
scalar RSUExampleScenario.node[647].veinsmobility 	totalCO2Emission 	179.30406175063
scalar RSUExampleScenario.node[648].veinsmobility 	startTime 	1944.1
scalar RSUExampleScenario.node[648].veinsmobility 	totalTime 	55.8
scalar RSUExampleScenario.node[648].veinsmobility 	stopTime 	2000
scalar RSUExampleScenario.node[648].veinsmobility 	minSpeed 	0.25956002492527
scalar RSUExampleScenario.node[648].veinsmobility 	maxSpeed 	13.999943634265
scalar RSUExampleScenario.node[648].veinsmobility 	totalDistance 	621.03381302505
scalar RSUExampleScenario.node[648].veinsmobility 	totalCO2Emission 	172.15236234254
scalar RSUExampleScenario.node[649].veinsmobility 	startTime 	1947.1
scalar RSUExampleScenario.node[649].veinsmobility 	totalTime 	52.8
scalar RSUExampleScenario.node[649].veinsmobility 	stopTime 	2000
scalar RSUExampleScenario.node[649].veinsmobility 	minSpeed 	0.2524321818999
scalar RSUExampleScenario.node[649].veinsmobility 	maxSpeed 	13.998870953722
scalar RSUExampleScenario.node[649].veinsmobility 	totalDistance 	579.34172622206
scalar RSUExampleScenario.node[649].veinsmobility 	totalCO2Emission 	164.21247594803
scalar RSUExampleScenario.node[650].veinsmobility 	startTime 	1950.1
scalar RSUExampleScenario.node[650].veinsmobility 	totalTime 	49.8
scalar RSUExampleScenario.node[650].veinsmobility 	stopTime 	2000
scalar RSUExampleScenario.node[650].veinsmobility 	minSpeed 	0.24778362462809
scalar RSUExampleScenario.node[650].veinsmobility 	maxSpeed 	13.999498011544
scalar RSUExampleScenario.node[650].veinsmobility 	totalDistance 	538.12173566793
scalar RSUExampleScenario.node[650].veinsmobility 	totalCO2Emission 	157.42431124193
scalar RSUExampleScenario.node[651].veinsmobility 	startTime 	1953.1
scalar RSUExampleScenario.node[651].veinsmobility 	totalTime 	46.8
scalar RSUExampleScenario.node[651].veinsmobility 	stopTime 	2000
scalar RSUExampleScenario.node[651].veinsmobility 	minSpeed 	0.25033100305381
scalar RSUExampleScenario.node[651].veinsmobility 	maxSpeed 	13.998106212139
scalar RSUExampleScenario.node[651].veinsmobility 	totalDistance 	494.21463129394
scalar RSUExampleScenario.node[651].veinsmobility 	totalCO2Emission 	150.27050786152
scalar RSUExampleScenario.node[652].veinsmobility 	startTime 	1956.1
scalar RSUExampleScenario.node[652].veinsmobility 	totalTime 	43.8
scalar RSUExampleScenario.node[652].veinsmobility 	stopTime 	2000
scalar RSUExampleScenario.node[652].veinsmobility 	minSpeed 	0.25572732810793
scalar RSUExampleScenario.node[652].veinsmobility 	maxSpeed 	13.998806693491
scalar RSUExampleScenario.node[652].veinsmobility 	totalDistance 	452.78881006434
scalar RSUExampleScenario.node[652].veinsmobility 	totalCO2Emission 	143.80289015435
scalar RSUExampleScenario.node[653].veinsmobility 	startTime 	1959.1
scalar RSUExampleScenario.node[653].veinsmobility 	totalTime 	40.8
scalar RSUExampleScenario.node[653].veinsmobility 	stopTime 	2000
scalar RSUExampleScenario.node[653].veinsmobility 	minSpeed 	0.25191649292293
scalar RSUExampleScenario.node[653].veinsmobility 	maxSpeed 	13.99997066872
scalar RSUExampleScenario.node[653].veinsmobility 	totalDistance 	413.30704253813
scalar RSUExampleScenario.node[653].veinsmobility 	totalCO2Emission 	136.24586320601
scalar RSUExampleScenario.node[654].veinsmobility 	startTime 	1962.1
scalar RSUExampleScenario.node[654].veinsmobility 	totalTime 	37.8
scalar RSUExampleScenario.node[654].veinsmobility 	stopTime 	2000
scalar RSUExampleScenario.node[654].veinsmobility 	minSpeed 	0.24960867660446
scalar RSUExampleScenario.node[654].veinsmobility 	maxSpeed 	13.999548955678
scalar RSUExampleScenario.node[654].veinsmobility 	totalDistance 	371.056058702
scalar RSUExampleScenario.node[654].veinsmobility 	totalCO2Emission 	128.92445283741
scalar RSUExampleScenario.node[655].veinsmobility 	startTime 	1965.1
scalar RSUExampleScenario.node[655].veinsmobility 	totalTime 	34.8
scalar RSUExampleScenario.node[655].veinsmobility 	stopTime 	2000
scalar RSUExampleScenario.node[655].veinsmobility 	minSpeed 	0.258162662016
scalar RSUExampleScenario.node[655].veinsmobility 	maxSpeed 	13.999934817201
scalar RSUExampleScenario.node[655].veinsmobility 	totalDistance 	328.91212218106
scalar RSUExampleScenario.node[655].veinsmobility 	totalCO2Emission 	123.07088253504
scalar RSUExampleScenario.node[656].veinsmobility 	startTime 	1968.1
scalar RSUExampleScenario.node[656].veinsmobility 	totalTime 	31.8
scalar RSUExampleScenario.node[656].veinsmobility 	stopTime 	2000
scalar RSUExampleScenario.node[656].veinsmobility 	minSpeed 	0.2577685856598
scalar RSUExampleScenario.node[656].veinsmobility 	maxSpeed 	13.999779894522
scalar RSUExampleScenario.node[656].veinsmobility 	totalDistance 	286.86917020232
scalar RSUExampleScenario.node[656].veinsmobility 	totalCO2Emission 	114.86957310087
scalar RSUExampleScenario.node[657].veinsmobility 	startTime 	1971.1
scalar RSUExampleScenario.node[657].veinsmobility 	totalTime 	28.8
scalar RSUExampleScenario.node[657].veinsmobility 	stopTime 	2000
scalar RSUExampleScenario.node[657].veinsmobility 	minSpeed 	0.2490484393544
scalar RSUExampleScenario.node[657].veinsmobility 	maxSpeed 	13.88849650326
scalar RSUExampleScenario.node[657].veinsmobility 	totalDistance 	248.41217494122
scalar RSUExampleScenario.node[657].veinsmobility 	totalCO2Emission 	98.560569161118
scalar RSUExampleScenario.node[658].veinsmobility 	startTime 	1974.1
scalar RSUExampleScenario.node[658].veinsmobility 	totalTime 	25.8
scalar RSUExampleScenario.node[658].veinsmobility 	stopTime 	2000
scalar RSUExampleScenario.node[658].veinsmobility 	minSpeed 	0.25557304663491
scalar RSUExampleScenario.node[658].veinsmobility 	maxSpeed 	13.88669819769
scalar RSUExampleScenario.node[658].veinsmobility 	totalDistance 	225.63862389489
scalar RSUExampleScenario.node[658].veinsmobility 	totalCO2Emission 	83.3684752907
scalar RSUExampleScenario.node[659].veinsmobility 	startTime 	1977.1
scalar RSUExampleScenario.node[659].veinsmobility 	totalTime 	22.8
scalar RSUExampleScenario.node[659].veinsmobility 	stopTime 	2000
scalar RSUExampleScenario.node[659].veinsmobility 	minSpeed 	0.24774614995252
scalar RSUExampleScenario.node[659].veinsmobility 	maxSpeed 	13.88147970655
scalar RSUExampleScenario.node[659].veinsmobility 	totalDistance 	208.69658375789
scalar RSUExampleScenario.node[659].veinsmobility 	totalCO2Emission 	78.140126412852
scalar RSUExampleScenario.node[660].veinsmobility 	startTime 	1980.1
scalar RSUExampleScenario.node[660].veinsmobility 	totalTime 	19.8
scalar RSUExampleScenario.node[660].veinsmobility 	stopTime 	2000
scalar RSUExampleScenario.node[660].veinsmobility 	minSpeed 	0.2556527066105
scalar RSUExampleScenario.node[660].veinsmobility 	maxSpeed 	13.881602087666
scalar RSUExampleScenario.node[660].veinsmobility 	totalDistance 	173.20397082462
scalar RSUExampleScenario.node[660].veinsmobility 	totalCO2Emission 	75.46457036051
scalar RSUExampleScenario.node[661].veinsmobility 	startTime 	1983.1
scalar RSUExampleScenario.node[661].veinsmobility 	totalTime 	16.8
scalar RSUExampleScenario.node[661].veinsmobility 	stopTime 	2000
scalar RSUExampleScenario.node[661].veinsmobility 	minSpeed 	0.25221881452296
scalar RSUExampleScenario.node[661].veinsmobility 	maxSpeed 	13.889573747972
scalar RSUExampleScenario.node[661].veinsmobility 	totalDistance 	136.99521562454
scalar RSUExampleScenario.node[661].veinsmobility 	totalCO2Emission 	57.940825423684
scalar RSUExampleScenario.node[662].veinsmobility 	startTime 	1986.1
scalar RSUExampleScenario.node[662].veinsmobility 	totalTime 	13.8
scalar RSUExampleScenario.node[662].veinsmobility 	stopTime 	2000
scalar RSUExampleScenario.node[662].veinsmobility 	minSpeed 	0.24928877186659
scalar RSUExampleScenario.node[662].veinsmobility 	maxSpeed 	13.879992828113
scalar RSUExampleScenario.node[662].veinsmobility 	totalDistance 	116.74504552939
scalar RSUExampleScenario.node[662].veinsmobility 	totalCO2Emission 	42.672696243878
scalar RSUExampleScenario.node[663].veinsmobility 	startTime 	1989.1
scalar RSUExampleScenario.node[663].veinsmobility 	totalTime 	10.8
scalar RSUExampleScenario.node[663].veinsmobility 	stopTime 	2000
scalar RSUExampleScenario.node[663].veinsmobility 	minSpeed 	0.24859715110017
scalar RSUExampleScenario.node[663].veinsmobility 	maxSpeed 	13.88780278774
scalar RSUExampleScenario.node[663].veinsmobility 	totalDistance 	97.455629598102
scalar RSUExampleScenario.node[663].veinsmobility 	totalCO2Emission 	39.656107750201
scalar RSUExampleScenario.node[664].veinsmobility 	startTime 	1992.1
scalar RSUExampleScenario.node[664].veinsmobility 	totalTime 	7.8
scalar RSUExampleScenario.node[664].veinsmobility 	stopTime 	2000
scalar RSUExampleScenario.node[664].veinsmobility 	minSpeed 	0.25589354995545
scalar RSUExampleScenario.node[664].veinsmobility 	maxSpeed 	13.87385750419
scalar RSUExampleScenario.node[664].veinsmobility 	totalDistance 	60.523520743401
scalar RSUExampleScenario.node[664].veinsmobility 	totalCO2Emission 	35.697990060751
scalar RSUExampleScenario.node[665].veinsmobility 	startTime 	1995.1
scalar RSUExampleScenario.node[665].veinsmobility 	totalTime 	4.8
scalar RSUExampleScenario.node[665].veinsmobility 	stopTime 	2000
scalar RSUExampleScenario.node[665].veinsmobility 	minSpeed 	0.24809891429148
scalar RSUExampleScenario.node[665].veinsmobility 	maxSpeed 	9.6276302864724
scalar RSUExampleScenario.node[665].veinsmobility 	totalDistance 	24.119643133588
scalar RSUExampleScenario.node[665].veinsmobility 	totalCO2Emission 	17.878633943347
scalar RSUExampleScenario.node[666].veinsmobility 	startTime 	1998.1
scalar RSUExampleScenario.node[666].veinsmobility 	totalTime 	1.8
scalar RSUExampleScenario.node[666].veinsmobility 	stopTime 	2000
scalar RSUExampleScenario.node[666].veinsmobility 	minSpeed 	0.25267256070394
scalar RSUExampleScenario.node[666].veinsmobility 	maxSpeed 	3.9169247009442
scalar RSUExampleScenario.node[666].veinsmobility 	totalDistance 	3.8793933147175
scalar RSUExampleScenario.node[666].veinsmobility 	totalCO2Emission 	4.0149913622573
