version 2
run statistic-709-20150312-20:49:32-19092
attr c 9
attr configname statistic
attr datetime 20150312-20:49:32
attr experiment statistic
attr inifile omnetpp.ini
attr iterationvars "$p=1/10, $c=9"
attr iterationvars2 "$p=1/10, $c=9, $repetition=9"
attr measurement "$p=1/10, $c=9"
attr network RSUExampleScenario
attr p 1/10
attr processid 19092
attr repetition 9
attr replication #9
attr resultdir results
attr runnumber 709
attr seedset 709

scalar . 	c 	9
scalar RSUExampleScenario.rsu[0].appl 	NumberofCH 	8
scalar RSUExampleScenario.rsu[0].appl 	NumberofON 	69
scalar RSUExampleScenario.rsu[0].appl 	NumberofFN 	23
scalar RSUExampleScenario.rsu[0].appl 	meanClusterNodes 	8
scalar RSUExampleScenario.rsu[0].appl 	varClusterNodes 	2.8284271247462
scalar RSUExampleScenario.rsu[0].appl 	sumCHutility 	303.65991111951
scalar RSUExampleScenario.rsu[0].appl 	meanCHutility 	8
scalar RSUExampleScenario.rsu[0].appl 	varCHutility 	2.8284271247462
scalar RSUExampleScenario.rsu[0].appl 	sumDiffCHutility 	-30.028126995699
scalar RSUExampleScenario.rsu[0].appl 	meanDiffCHutility 	8
scalar RSUExampleScenario.rsu[0].appl 	varDiffCHutility 	2.8284271247462
scalar RSUExampleScenario.rsu[0].appl 	expectedCHutility 	273.63178412381
scalar RSUExampleScenario.rsu[0].appl 	meanExpectedCHutility 	8
scalar RSUExampleScenario.rsu[0].appl 	varExpectedCHutility 	2.8284271247462
