version 2
run statistic1-138-20150314-03:41:52-24368
attr c 20
attr configname statistic1
attr datetime 20150314-03:41:52
attr experiment statistic1
attr inifile omnetpp.ini
attr iterationvars "$p=1/20, $c=20"
attr iterationvars2 "$p=1/20, $c=20, $repetition=38"
attr measurement "$p=1/20, $c=20"
attr network RSUExampleScenario
attr p 1/20
attr processid 24368
attr repetition 38
attr replication #38
attr resultdir results
attr runnumber 138
attr seedset 138

scalar . 	c 	20
scalar RSUExampleScenario.rsu[0].appl 	NumberofCH 	5
scalar RSUExampleScenario.rsu[0].appl 	NumberofON 	86
scalar RSUExampleScenario.rsu[0].appl 	NumberofFN 	9
scalar RSUExampleScenario.rsu[0].appl 	meanClusterNodes 	5
scalar RSUExampleScenario.rsu[0].appl 	varClusterNodes 	2.2360679774998
scalar RSUExampleScenario.rsu[0].appl 	sumCHutility 	173.26427097988
scalar RSUExampleScenario.rsu[0].appl 	meanCHutility 	5
scalar RSUExampleScenario.rsu[0].appl 	varCHutility 	2.2360679774998
scalar RSUExampleScenario.rsu[0].appl 	sumDiffCHutility 	-5.5480492935472
scalar RSUExampleScenario.rsu[0].appl 	meanDiffCHutility 	5
scalar RSUExampleScenario.rsu[0].appl 	varDiffCHutility 	2.2360679774998
scalar RSUExampleScenario.rsu[0].appl 	expectedCHutility 	167.71622168633
scalar RSUExampleScenario.rsu[0].appl 	meanExpectedCHutility 	5
scalar RSUExampleScenario.rsu[0].appl 	varExpectedCHutility 	2.2360679774998
