version 2
run statistic7-291-20150315-20:50:35-3208
attr c 3
attr configname statistic7
attr datetime 20150315-20:50:35
attr experiment statistic7
attr inifile omnetpp.ini
attr iterationvars "$p=1/2, $c=3"
attr iterationvars2 "$p=1/2, $c=3, $repetition=91"
attr measurement "$p=1/2, $c=3"
attr network RSUExampleScenario
attr p 1/2
attr processid 3208
attr repetition 91
attr replication #91
attr resultdir results
attr runnumber 291
attr seedset 291

scalar . 	c 	3
scalar RSUExampleScenario.rsu[0].appl 	NumberofCH 	50
scalar RSUExampleScenario.rsu[0].appl 	NumberofON 	49
scalar RSUExampleScenario.rsu[0].appl 	NumberofFN 	1
scalar RSUExampleScenario.rsu[0].appl 	meanClusterNodes 	50
scalar RSUExampleScenario.rsu[0].appl 	varClusterNodes 	7.0710678118655
scalar RSUExampleScenario.rsu[0].appl 	sumCHutility 	1196.283787335
scalar RSUExampleScenario.rsu[0].appl 	meanCHutility 	50
scalar RSUExampleScenario.rsu[0].appl 	varCHutility 	7.0710678118655
scalar RSUExampleScenario.rsu[0].appl 	sumDiffCHutility 	511.30110778423
scalar RSUExampleScenario.rsu[0].appl 	meanDiffCHutility 	50
scalar RSUExampleScenario.rsu[0].appl 	varDiffCHutility 	7.0710678118655
scalar RSUExampleScenario.rsu[0].appl 	expectedCHutility 	1707.5848951192
scalar RSUExampleScenario.rsu[0].appl 	meanExpectedCHutility 	50
scalar RSUExampleScenario.rsu[0].appl 	varExpectedCHutility 	7.0710678118655
