version 2
run statisticRVV-215-20150326-07:17:42-8052
attr c 4
attr configname statisticRVV
attr datetime 20150326-07:17:42
attr experiment statisticRVV
attr inifile omnetpp.ini
attr iterationvars "$sc=\"erlangen-medium.launchd.xml\", $p=1/5, $c=4"
attr iterationvars2 "$sc=\"erlangen-medium.launchd.xml\", $p=1/5, $c=4, $repetition=5"
attr measurement "$sc=\"erlangen-medium.launchd.xml\", $p=1/5, $c=4"
attr network RSUExampleScenario
attr p 1/5
attr processid 8052
attr repetition 5
attr replication #5
attr resultdir results
attr runnumber 215
attr sc "\"erlangen-medium.launchd.xml\""
attr seedset 215

scalar . 	c 	4
scalar RSUExampleScenario.node[0].veinsmobility 	startTime 	0.1
scalar RSUExampleScenario.node[0].veinsmobility 	totalTime 	264.4
scalar RSUExampleScenario.node[0].veinsmobility 	stopTime 	264.6
scalar RSUExampleScenario.node[0].veinsmobility 	minSpeed 	0.25799901932152
scalar RSUExampleScenario.node[0].veinsmobility 	maxSpeed 	13.999943709057
scalar RSUExampleScenario.node[0].veinsmobility 	totalDistance 	3409.4743454087
scalar RSUExampleScenario.node[0].veinsmobility 	totalCO2Emission 	693.95299307348
scalar RSUExampleScenario.node[1].veinsmobility 	startTime 	3.1
scalar RSUExampleScenario.node[1].veinsmobility 	totalTime 	265.3
scalar RSUExampleScenario.node[1].veinsmobility 	stopTime 	268.5
scalar RSUExampleScenario.node[1].veinsmobility 	minSpeed 	0.25124986254796
scalar RSUExampleScenario.node[1].veinsmobility 	maxSpeed 	13.999495895873
scalar RSUExampleScenario.node[1].veinsmobility 	totalDistance 	3409.7289296506
scalar RSUExampleScenario.node[1].veinsmobility 	totalCO2Emission 	690.90470200658
scalar RSUExampleScenario.node[2].veinsmobility 	startTime 	6.1
scalar RSUExampleScenario.node[2].veinsmobility 	totalTime 	265.9
scalar RSUExampleScenario.node[2].veinsmobility 	stopTime 	272.1
scalar RSUExampleScenario.node[2].veinsmobility 	minSpeed 	0.25552303000866
scalar RSUExampleScenario.node[2].veinsmobility 	maxSpeed 	13.999988784047
scalar RSUExampleScenario.node[2].veinsmobility 	totalDistance 	3409.5305485968
scalar RSUExampleScenario.node[2].veinsmobility 	totalCO2Emission 	688.79667559484
scalar RSUExampleScenario.node[3].veinsmobility 	startTime 	9.1
scalar RSUExampleScenario.node[3].veinsmobility 	totalTime 	266.3
scalar RSUExampleScenario.node[3].veinsmobility 	stopTime 	275.5
scalar RSUExampleScenario.node[3].veinsmobility 	minSpeed 	0.25704543284909
scalar RSUExampleScenario.node[3].veinsmobility 	maxSpeed 	13.999958194436
scalar RSUExampleScenario.node[3].veinsmobility 	totalDistance 	3409.4771952326
scalar RSUExampleScenario.node[3].veinsmobility 	totalCO2Emission 	690.38474751578
scalar RSUExampleScenario.node[4].veinsmobility 	startTime 	12.1
scalar RSUExampleScenario.node[4].veinsmobility 	totalTime 	266.6
scalar RSUExampleScenario.node[4].veinsmobility 	stopTime 	278.8
scalar RSUExampleScenario.node[4].veinsmobility 	minSpeed 	0.24856613709545
scalar RSUExampleScenario.node[4].veinsmobility 	maxSpeed 	13.999963651209
scalar RSUExampleScenario.node[4].veinsmobility 	totalDistance 	3409.5612935041
scalar RSUExampleScenario.node[4].veinsmobility 	totalCO2Emission 	692.37552837064
scalar RSUExampleScenario.node[5].veinsmobility 	startTime 	15.1
scalar RSUExampleScenario.node[5].veinsmobility 	totalTime 	266.7
scalar RSUExampleScenario.node[5].veinsmobility 	stopTime 	281.9
scalar RSUExampleScenario.node[5].veinsmobility 	minSpeed 	0.25809937121114
scalar RSUExampleScenario.node[5].veinsmobility 	maxSpeed 	13.999967818353
scalar RSUExampleScenario.node[5].veinsmobility 	totalDistance 	3413.787305292
scalar RSUExampleScenario.node[5].veinsmobility 	totalCO2Emission 	698.04651484125
scalar RSUExampleScenario.node[6].veinsmobility 	startTime 	18.1
scalar RSUExampleScenario.node[6].veinsmobility 	totalTime 	266.9
scalar RSUExampleScenario.node[6].veinsmobility 	stopTime 	285.1
scalar RSUExampleScenario.node[6].veinsmobility 	minSpeed 	0.24807116782153
scalar RSUExampleScenario.node[6].veinsmobility 	maxSpeed 	13.999893473012
scalar RSUExampleScenario.node[6].veinsmobility 	totalDistance 	3409.1668151475
scalar RSUExampleScenario.node[6].veinsmobility 	totalCO2Emission 	690.43388806221
scalar RSUExampleScenario.node[7].veinsmobility 	startTime 	21.1
scalar RSUExampleScenario.node[7].veinsmobility 	totalTime 	267
scalar RSUExampleScenario.node[7].veinsmobility 	stopTime 	288.2
scalar RSUExampleScenario.node[7].veinsmobility 	minSpeed 	0.24707684916351
scalar RSUExampleScenario.node[7].veinsmobility 	maxSpeed 	13.999865749658
scalar RSUExampleScenario.node[7].veinsmobility 	totalDistance 	3414.0471142409
scalar RSUExampleScenario.node[7].veinsmobility 	totalCO2Emission 	687.2707722413
scalar RSUExampleScenario.node[8].veinsmobility 	startTime 	24.1
scalar RSUExampleScenario.node[8].veinsmobility 	totalTime 	267
scalar RSUExampleScenario.node[8].veinsmobility 	stopTime 	291.2
scalar RSUExampleScenario.node[8].veinsmobility 	minSpeed 	0.25675704990677
scalar RSUExampleScenario.node[8].veinsmobility 	maxSpeed 	13.999962383888
scalar RSUExampleScenario.node[8].veinsmobility 	totalDistance 	3409.6306919885
scalar RSUExampleScenario.node[8].veinsmobility 	totalCO2Emission 	693.19916585147
scalar RSUExampleScenario.node[9].veinsmobility 	startTime 	27.1
scalar RSUExampleScenario.node[9].veinsmobility 	totalTime 	267.1
scalar RSUExampleScenario.node[9].veinsmobility 	stopTime 	294.3
scalar RSUExampleScenario.node[9].veinsmobility 	minSpeed 	0.25438859696779
scalar RSUExampleScenario.node[9].veinsmobility 	maxSpeed 	13.999910672188
scalar RSUExampleScenario.node[9].veinsmobility 	totalDistance 	3413.412606847
scalar RSUExampleScenario.node[9].veinsmobility 	totalCO2Emission 	690.56684760453
scalar RSUExampleScenario.node[10].veinsmobility 	startTime 	30.1
scalar RSUExampleScenario.node[10].veinsmobility 	totalTime 	267.1
scalar RSUExampleScenario.node[10].veinsmobility 	stopTime 	297.3
scalar RSUExampleScenario.node[10].veinsmobility 	minSpeed 	0.25012709902553
scalar RSUExampleScenario.node[10].veinsmobility 	maxSpeed 	13.999948216474
scalar RSUExampleScenario.node[10].veinsmobility 	totalDistance 	3409.4828124647
scalar RSUExampleScenario.node[10].veinsmobility 	totalCO2Emission 	694.89654773917
scalar RSUExampleScenario.node[11].veinsmobility 	startTime 	33.1
scalar RSUExampleScenario.node[11].veinsmobility 	totalTime 	267.1
scalar RSUExampleScenario.node[11].veinsmobility 	stopTime 	300.3
scalar RSUExampleScenario.node[11].veinsmobility 	minSpeed 	0.24995387516427
scalar RSUExampleScenario.node[11].veinsmobility 	maxSpeed 	13.999823733186
scalar RSUExampleScenario.node[11].veinsmobility 	totalDistance 	3409.3172829373
scalar RSUExampleScenario.node[11].veinsmobility 	totalCO2Emission 	693.94443001942
scalar RSUExampleScenario.node[12].veinsmobility 	startTime 	36.1
scalar RSUExampleScenario.node[12].veinsmobility 	totalTime 	267.2
scalar RSUExampleScenario.node[12].veinsmobility 	stopTime 	303.4
scalar RSUExampleScenario.node[12].veinsmobility 	minSpeed 	0.25955469294451
scalar RSUExampleScenario.node[12].veinsmobility 	maxSpeed 	13.999972020155
scalar RSUExampleScenario.node[12].veinsmobility 	totalDistance 	3413.3312151793
scalar RSUExampleScenario.node[12].veinsmobility 	totalCO2Emission 	687.89447029405
scalar RSUExampleScenario.node[13].veinsmobility 	startTime 	39.1
scalar RSUExampleScenario.node[13].veinsmobility 	totalTime 	267.2
scalar RSUExampleScenario.node[13].veinsmobility 	stopTime 	306.4
scalar RSUExampleScenario.node[13].veinsmobility 	minSpeed 	0.25322543141688
scalar RSUExampleScenario.node[13].veinsmobility 	maxSpeed 	13.999949589733
scalar RSUExampleScenario.node[13].veinsmobility 	totalDistance 	3409.3366441279
scalar RSUExampleScenario.node[13].veinsmobility 	totalCO2Emission 	692.89031813163
scalar RSUExampleScenario.node[14].veinsmobility 	startTime 	42.1
scalar RSUExampleScenario.node[14].veinsmobility 	totalTime 	267.2
scalar RSUExampleScenario.node[14].veinsmobility 	stopTime 	309.4
scalar RSUExampleScenario.node[14].veinsmobility 	minSpeed 	0.25142979548941
scalar RSUExampleScenario.node[14].veinsmobility 	maxSpeed 	13.999980318304
scalar RSUExampleScenario.node[14].veinsmobility 	totalDistance 	3413.7397273188
scalar RSUExampleScenario.node[14].veinsmobility 	totalCO2Emission 	690.50655394739
scalar RSUExampleScenario.node[15].veinsmobility 	startTime 	45.1
scalar RSUExampleScenario.node[15].veinsmobility 	totalTime 	267.3
scalar RSUExampleScenario.node[15].veinsmobility 	stopTime 	312.5
scalar RSUExampleScenario.node[15].veinsmobility 	minSpeed 	0.247590869518
scalar RSUExampleScenario.node[15].veinsmobility 	maxSpeed 	13.999926733924
scalar RSUExampleScenario.node[15].veinsmobility 	totalDistance 	3410.1347760546
scalar RSUExampleScenario.node[15].veinsmobility 	totalCO2Emission 	692.88620482999
scalar RSUExampleScenario.node[16].veinsmobility 	startTime 	48.1
scalar RSUExampleScenario.node[16].veinsmobility 	totalTime 	267.4
scalar RSUExampleScenario.node[16].veinsmobility 	stopTime 	315.6
scalar RSUExampleScenario.node[16].veinsmobility 	minSpeed 	0.2592471570184
scalar RSUExampleScenario.node[16].veinsmobility 	maxSpeed 	13.999848448175
scalar RSUExampleScenario.node[16].veinsmobility 	totalDistance 	3414.0074307251
scalar RSUExampleScenario.node[16].veinsmobility 	totalCO2Emission 	689.54562646599
scalar RSUExampleScenario.node[17].veinsmobility 	startTime 	51.1
scalar RSUExampleScenario.node[17].veinsmobility 	totalTime 	267.5
scalar RSUExampleScenario.node[17].veinsmobility 	stopTime 	318.7
scalar RSUExampleScenario.node[17].veinsmobility 	minSpeed 	0.2480269313117
scalar RSUExampleScenario.node[17].veinsmobility 	maxSpeed 	13.999959296463
scalar RSUExampleScenario.node[17].veinsmobility 	totalDistance 	3409.4007544835
scalar RSUExampleScenario.node[17].veinsmobility 	totalCO2Emission 	690.23184499196
scalar RSUExampleScenario.node[18].veinsmobility 	startTime 	54.1
scalar RSUExampleScenario.node[18].veinsmobility 	totalTime 	267.6
scalar RSUExampleScenario.node[18].veinsmobility 	stopTime 	321.8
scalar RSUExampleScenario.node[18].veinsmobility 	minSpeed 	0.25307661539433
scalar RSUExampleScenario.node[18].veinsmobility 	maxSpeed 	13.999935676267
scalar RSUExampleScenario.node[18].veinsmobility 	totalDistance 	3413.8866416206
scalar RSUExampleScenario.node[18].veinsmobility 	totalCO2Emission 	693.45904083519
scalar RSUExampleScenario.node[19].veinsmobility 	startTime 	57.1
scalar RSUExampleScenario.node[19].veinsmobility 	totalTime 	267.8
scalar RSUExampleScenario.node[19].veinsmobility 	stopTime 	325
scalar RSUExampleScenario.node[19].veinsmobility 	minSpeed 	0.25080465675402
scalar RSUExampleScenario.node[19].veinsmobility 	maxSpeed 	13.999979193334
scalar RSUExampleScenario.node[19].veinsmobility 	totalDistance 	3410.0265412277
scalar RSUExampleScenario.node[19].veinsmobility 	totalCO2Emission 	688.24731716235
scalar RSUExampleScenario.node[20].veinsmobility 	startTime 	60.1
scalar RSUExampleScenario.node[20].veinsmobility 	totalTime 	267.9
scalar RSUExampleScenario.node[20].veinsmobility 	stopTime 	328.1
scalar RSUExampleScenario.node[20].veinsmobility 	minSpeed 	0.25981921177614
scalar RSUExampleScenario.node[20].veinsmobility 	maxSpeed 	13.999929971267
scalar RSUExampleScenario.node[20].veinsmobility 	totalDistance 	3413.4636869254
scalar RSUExampleScenario.node[20].veinsmobility 	totalCO2Emission 	685.55985607752
scalar RSUExampleScenario.node[21].veinsmobility 	startTime 	63.1
scalar RSUExampleScenario.node[21].veinsmobility 	totalTime 	268.1
scalar RSUExampleScenario.node[21].veinsmobility 	stopTime 	331.3
scalar RSUExampleScenario.node[21].veinsmobility 	minSpeed 	0.2472994359564
scalar RSUExampleScenario.node[21].veinsmobility 	maxSpeed 	13.999763401013
scalar RSUExampleScenario.node[21].veinsmobility 	totalDistance 	3409.5958969608
scalar RSUExampleScenario.node[21].veinsmobility 	totalCO2Emission 	690.76770611527
scalar RSUExampleScenario.node[22].veinsmobility 	startTime 	66.1
scalar RSUExampleScenario.node[22].veinsmobility 	totalTime 	268.3
scalar RSUExampleScenario.node[22].veinsmobility 	stopTime 	334.5
scalar RSUExampleScenario.node[22].veinsmobility 	minSpeed 	0.25250190198468
scalar RSUExampleScenario.node[22].veinsmobility 	maxSpeed 	13.999937551278
scalar RSUExampleScenario.node[22].veinsmobility 	totalDistance 	3413.793521175
scalar RSUExampleScenario.node[22].veinsmobility 	totalCO2Emission 	690.45932571922
scalar RSUExampleScenario.node[23].veinsmobility 	startTime 	69.1
scalar RSUExampleScenario.node[23].veinsmobility 	totalTime 	268.5
scalar RSUExampleScenario.node[23].veinsmobility 	stopTime 	337.7
scalar RSUExampleScenario.node[23].veinsmobility 	minSpeed 	0.24872065872373
scalar RSUExampleScenario.node[23].veinsmobility 	maxSpeed 	13.999789383474
scalar RSUExampleScenario.node[23].veinsmobility 	totalDistance 	3409.3248267836
scalar RSUExampleScenario.node[23].veinsmobility 	totalCO2Emission 	689.85162850493
scalar RSUExampleScenario.node[24].veinsmobility 	startTime 	72.1
scalar RSUExampleScenario.node[24].veinsmobility 	totalTime 	268.8
scalar RSUExampleScenario.node[24].veinsmobility 	stopTime 	341
scalar RSUExampleScenario.node[24].veinsmobility 	minSpeed 	0.24853380762297
scalar RSUExampleScenario.node[24].veinsmobility 	maxSpeed 	13.999911671274
scalar RSUExampleScenario.node[24].veinsmobility 	totalDistance 	3413.5299941767
scalar RSUExampleScenario.node[24].veinsmobility 	totalCO2Emission 	692.36717254935
scalar RSUExampleScenario.node[25].veinsmobility 	startTime 	75.1
scalar RSUExampleScenario.node[25].veinsmobility 	totalTime 	269.2
scalar RSUExampleScenario.node[25].veinsmobility 	stopTime 	344.4
scalar RSUExampleScenario.node[25].veinsmobility 	minSpeed 	0.2483697215328
scalar RSUExampleScenario.node[25].veinsmobility 	maxSpeed 	13.999944467209
scalar RSUExampleScenario.node[25].veinsmobility 	totalDistance 	3409.8544901485
scalar RSUExampleScenario.node[25].veinsmobility 	totalCO2Emission 	692.94436826982
scalar RSUExampleScenario.node[26].veinsmobility 	startTime 	78.1
scalar RSUExampleScenario.node[26].veinsmobility 	totalTime 	269.7
scalar RSUExampleScenario.node[26].veinsmobility 	stopTime 	347.9
scalar RSUExampleScenario.node[26].veinsmobility 	minSpeed 	0.24868513367558
scalar RSUExampleScenario.node[26].veinsmobility 	maxSpeed 	13.999992566062
scalar RSUExampleScenario.node[26].veinsmobility 	totalDistance 	3414.0545765056
scalar RSUExampleScenario.node[26].veinsmobility 	totalCO2Emission 	693.28641098106
scalar RSUExampleScenario.node[27].veinsmobility 	startTime 	81.1
scalar RSUExampleScenario.node[27].veinsmobility 	totalTime 	270.2
scalar RSUExampleScenario.node[27].veinsmobility 	stopTime 	351.4
scalar RSUExampleScenario.node[27].veinsmobility 	minSpeed 	0.25626295697875
scalar RSUExampleScenario.node[27].veinsmobility 	maxSpeed 	13.999760785678
scalar RSUExampleScenario.node[27].veinsmobility 	totalDistance 	3409.8379461785
scalar RSUExampleScenario.node[27].veinsmobility 	totalCO2Emission 	696.71235916415
scalar RSUExampleScenario.node[28].veinsmobility 	startTime 	84.1
scalar RSUExampleScenario.node[28].veinsmobility 	totalTime 	270.7
scalar RSUExampleScenario.node[28].veinsmobility 	stopTime 	354.9
scalar RSUExampleScenario.node[28].veinsmobility 	minSpeed 	0.25268388694408
scalar RSUExampleScenario.node[28].veinsmobility 	maxSpeed 	13.999986591102
scalar RSUExampleScenario.node[28].veinsmobility 	totalDistance 	3413.6993112351
scalar RSUExampleScenario.node[28].veinsmobility 	totalCO2Emission 	691.31189333129
scalar RSUExampleScenario.node[29].veinsmobility 	startTime 	87.1
scalar RSUExampleScenario.node[29].veinsmobility 	totalTime 	271.3
scalar RSUExampleScenario.node[29].veinsmobility 	stopTime 	358.5
scalar RSUExampleScenario.node[29].veinsmobility 	minSpeed 	0.24982035333896
scalar RSUExampleScenario.node[29].veinsmobility 	maxSpeed 	13.999904441615
scalar RSUExampleScenario.node[29].veinsmobility 	totalDistance 	3409.7658002383
scalar RSUExampleScenario.node[29].veinsmobility 	totalCO2Emission 	694.1241859649
scalar RSUExampleScenario.node[30].veinsmobility 	startTime 	90.1
scalar RSUExampleScenario.node[30].veinsmobility 	totalTime 	271.9
scalar RSUExampleScenario.node[30].veinsmobility 	stopTime 	362.1
scalar RSUExampleScenario.node[30].veinsmobility 	minSpeed 	0.24917265531537
scalar RSUExampleScenario.node[30].veinsmobility 	maxSpeed 	13.999990205977
scalar RSUExampleScenario.node[30].veinsmobility 	totalDistance 	3413.6836917307
scalar RSUExampleScenario.node[30].veinsmobility 	totalCO2Emission 	691.67460870115
scalar RSUExampleScenario.node[31].veinsmobility 	startTime 	93.1
scalar RSUExampleScenario.node[31].veinsmobility 	totalTime 	272.5
scalar RSUExampleScenario.node[31].veinsmobility 	stopTime 	365.7
scalar RSUExampleScenario.node[31].veinsmobility 	minSpeed 	0.25319189601345
scalar RSUExampleScenario.node[31].veinsmobility 	maxSpeed 	13.999992470718
scalar RSUExampleScenario.node[31].veinsmobility 	totalDistance 	3409.8802947215
scalar RSUExampleScenario.node[31].veinsmobility 	totalCO2Emission 	695.02851807579
scalar RSUExampleScenario.node[32].veinsmobility 	startTime 	96.1
scalar RSUExampleScenario.node[32].veinsmobility 	totalTime 	273.2
scalar RSUExampleScenario.node[32].veinsmobility 	stopTime 	369.4
scalar RSUExampleScenario.node[32].veinsmobility 	minSpeed 	0.2473888301549
scalar RSUExampleScenario.node[32].veinsmobility 	maxSpeed 	13.999995679276
scalar RSUExampleScenario.node[32].veinsmobility 	totalDistance 	3414.2931257217
scalar RSUExampleScenario.node[32].veinsmobility 	totalCO2Emission 	697.54969104046
scalar RSUExampleScenario.node[33].veinsmobility 	startTime 	99.1
scalar RSUExampleScenario.node[33].veinsmobility 	totalTime 	273.9
scalar RSUExampleScenario.node[33].veinsmobility 	stopTime 	373.1
scalar RSUExampleScenario.node[33].veinsmobility 	minSpeed 	0.25220028049522
scalar RSUExampleScenario.node[33].veinsmobility 	maxSpeed 	13.999957907496
scalar RSUExampleScenario.node[33].veinsmobility 	totalDistance 	3409.7883389099
scalar RSUExampleScenario.node[33].veinsmobility 	totalCO2Emission 	699.9554242783
scalar RSUExampleScenario.node[34].veinsmobility 	startTime 	102.1
scalar RSUExampleScenario.node[34].veinsmobility 	totalTime 	274.6
scalar RSUExampleScenario.node[34].veinsmobility 	stopTime 	376.8
scalar RSUExampleScenario.node[34].veinsmobility 	minSpeed 	0.25422203858267
scalar RSUExampleScenario.node[34].veinsmobility 	maxSpeed 	13.99996993684
scalar RSUExampleScenario.node[34].veinsmobility 	totalDistance 	3413.8566180574
scalar RSUExampleScenario.node[34].veinsmobility 	totalCO2Emission 	693.65556718655
scalar RSUExampleScenario.node[35].veinsmobility 	startTime 	105.1
scalar RSUExampleScenario.node[35].veinsmobility 	totalTime 	275.2
scalar RSUExampleScenario.node[35].veinsmobility 	stopTime 	380.4
scalar RSUExampleScenario.node[35].veinsmobility 	minSpeed 	0.25588561785803
scalar RSUExampleScenario.node[35].veinsmobility 	maxSpeed 	13.999949760141
scalar RSUExampleScenario.node[35].veinsmobility 	totalDistance 	3409.4349339692
scalar RSUExampleScenario.node[35].veinsmobility 	totalCO2Emission 	700.4483134317
scalar RSUExampleScenario.node[36].veinsmobility 	startTime 	108.1
scalar RSUExampleScenario.node[36].veinsmobility 	totalTime 	275.9
scalar RSUExampleScenario.node[36].veinsmobility 	stopTime 	384.1
scalar RSUExampleScenario.node[36].veinsmobility 	minSpeed 	0.25004845937761
scalar RSUExampleScenario.node[36].veinsmobility 	maxSpeed 	13.999996848407
scalar RSUExampleScenario.node[36].veinsmobility 	totalDistance 	3414.1832674497
scalar RSUExampleScenario.node[36].veinsmobility 	totalCO2Emission 	699.58171900692
scalar RSUExampleScenario.node[37].veinsmobility 	startTime 	111.1
scalar RSUExampleScenario.node[37].veinsmobility 	totalTime 	276.6
scalar RSUExampleScenario.node[37].veinsmobility 	stopTime 	387.8
scalar RSUExampleScenario.node[37].veinsmobility 	minSpeed 	0.25336146996752
scalar RSUExampleScenario.node[37].veinsmobility 	maxSpeed 	13.999829037469
scalar RSUExampleScenario.node[37].veinsmobility 	totalDistance 	3409.8264285601
scalar RSUExampleScenario.node[37].veinsmobility 	totalCO2Emission 	700.0625248498
scalar RSUExampleScenario.node[38].veinsmobility 	startTime 	114.1
scalar RSUExampleScenario.node[38].veinsmobility 	totalTime 	277.3
scalar RSUExampleScenario.node[38].veinsmobility 	stopTime 	391.5
scalar RSUExampleScenario.node[38].veinsmobility 	minSpeed 	0.25725531831221
scalar RSUExampleScenario.node[38].veinsmobility 	maxSpeed 	13.999902307237
scalar RSUExampleScenario.node[38].veinsmobility 	totalDistance 	3413.7978539678
scalar RSUExampleScenario.node[38].veinsmobility 	totalCO2Emission 	699.72489224006
scalar RSUExampleScenario.node[39].veinsmobility 	startTime 	117.1
scalar RSUExampleScenario.node[39].veinsmobility 	totalTime 	278
scalar RSUExampleScenario.node[39].veinsmobility 	stopTime 	395.2
scalar RSUExampleScenario.node[39].veinsmobility 	minSpeed 	0.25985346206999
scalar RSUExampleScenario.node[39].veinsmobility 	maxSpeed 	13.999952173166
scalar RSUExampleScenario.node[39].veinsmobility 	totalDistance 	3409.7133891671
scalar RSUExampleScenario.node[39].veinsmobility 	totalCO2Emission 	698.5258751802
scalar RSUExampleScenario.node[40].veinsmobility 	startTime 	120.1
scalar RSUExampleScenario.node[40].veinsmobility 	totalTime 	278.7
scalar RSUExampleScenario.node[40].veinsmobility 	stopTime 	398.9
scalar RSUExampleScenario.node[40].veinsmobility 	minSpeed 	0.24889980026032
scalar RSUExampleScenario.node[40].veinsmobility 	maxSpeed 	13.999952712874
scalar RSUExampleScenario.node[40].veinsmobility 	totalDistance 	3413.8563948981
scalar RSUExampleScenario.node[40].veinsmobility 	totalCO2Emission 	704.49744584363
scalar RSUExampleScenario.node[41].veinsmobility 	startTime 	123.1
scalar RSUExampleScenario.node[41].veinsmobility 	totalTime 	279.4
scalar RSUExampleScenario.node[41].veinsmobility 	stopTime 	402.6
scalar RSUExampleScenario.node[41].veinsmobility 	minSpeed 	0.24805250407732
scalar RSUExampleScenario.node[41].veinsmobility 	maxSpeed 	13.999967148039
scalar RSUExampleScenario.node[41].veinsmobility 	totalDistance 	3410.1056687728
scalar RSUExampleScenario.node[41].veinsmobility 	totalCO2Emission 	696.89941508828
scalar RSUExampleScenario.node[42].veinsmobility 	startTime 	126.1
scalar RSUExampleScenario.node[42].veinsmobility 	totalTime 	280.1
scalar RSUExampleScenario.node[42].veinsmobility 	stopTime 	406.3
scalar RSUExampleScenario.node[42].veinsmobility 	minSpeed 	0.24793931778474
scalar RSUExampleScenario.node[42].veinsmobility 	maxSpeed 	13.999891496119
scalar RSUExampleScenario.node[42].veinsmobility 	totalDistance 	3414.0171176244
scalar RSUExampleScenario.node[42].veinsmobility 	totalCO2Emission 	696.33998512897
scalar RSUExampleScenario.node[43].veinsmobility 	startTime 	129.1
scalar RSUExampleScenario.node[43].veinsmobility 	totalTime 	280.8
scalar RSUExampleScenario.node[43].veinsmobility 	stopTime 	410
scalar RSUExampleScenario.node[43].veinsmobility 	minSpeed 	0.25446835452737
scalar RSUExampleScenario.node[43].veinsmobility 	maxSpeed 	13.999972735387
scalar RSUExampleScenario.node[43].veinsmobility 	totalDistance 	3409.860930752
scalar RSUExampleScenario.node[43].veinsmobility 	totalCO2Emission 	701.91297569836
scalar RSUExampleScenario.node[44].veinsmobility 	startTime 	132.1
scalar RSUExampleScenario.node[44].veinsmobility 	totalTime 	281.5
scalar RSUExampleScenario.node[44].veinsmobility 	stopTime 	413.7
scalar RSUExampleScenario.node[44].veinsmobility 	minSpeed 	0.2531252863151
scalar RSUExampleScenario.node[44].veinsmobility 	maxSpeed 	13.99993527337
scalar RSUExampleScenario.node[44].veinsmobility 	totalDistance 	3414.0165666579
scalar RSUExampleScenario.node[44].veinsmobility 	totalCO2Emission 	703.72874148861
scalar RSUExampleScenario.node[45].veinsmobility 	startTime 	135.1
scalar RSUExampleScenario.node[45].veinsmobility 	totalTime 	282.2
scalar RSUExampleScenario.node[45].veinsmobility 	stopTime 	417.4
scalar RSUExampleScenario.node[45].veinsmobility 	minSpeed 	0.25546583806328
scalar RSUExampleScenario.node[45].veinsmobility 	maxSpeed 	13.999910255913
scalar RSUExampleScenario.node[45].veinsmobility 	totalDistance 	3409.7451740878
scalar RSUExampleScenario.node[45].veinsmobility 	totalCO2Emission 	701.61571546568
scalar RSUExampleScenario.node[46].veinsmobility 	startTime 	138.1
scalar RSUExampleScenario.node[46].veinsmobility 	totalTime 	282.9
scalar RSUExampleScenario.node[46].veinsmobility 	stopTime 	421.1
scalar RSUExampleScenario.node[46].veinsmobility 	minSpeed 	0.25612948966003
scalar RSUExampleScenario.node[46].veinsmobility 	maxSpeed 	13.999993266826
scalar RSUExampleScenario.node[46].veinsmobility 	totalDistance 	3413.6994900753
scalar RSUExampleScenario.node[46].veinsmobility 	totalCO2Emission 	704.46658110617
scalar RSUExampleScenario.node[47].veinsmobility 	startTime 	141.1
scalar RSUExampleScenario.node[47].veinsmobility 	totalTime 	283.5
scalar RSUExampleScenario.node[47].veinsmobility 	stopTime 	424.7
scalar RSUExampleScenario.node[47].veinsmobility 	minSpeed 	0.24878370989393
scalar RSUExampleScenario.node[47].veinsmobility 	maxSpeed 	13.999964670271
scalar RSUExampleScenario.node[47].veinsmobility 	totalDistance 	3409.6005481967
scalar RSUExampleScenario.node[47].veinsmobility 	totalCO2Emission 	710.00384169081
scalar RSUExampleScenario.node[48].veinsmobility 	startTime 	144.1
scalar RSUExampleScenario.node[48].veinsmobility 	totalTime 	284.2
scalar RSUExampleScenario.node[48].veinsmobility 	stopTime 	428.4
scalar RSUExampleScenario.node[48].veinsmobility 	minSpeed 	0.25493136421568
scalar RSUExampleScenario.node[48].veinsmobility 	maxSpeed 	13.999839594215
scalar RSUExampleScenario.node[48].veinsmobility 	totalDistance 	3413.6551245895
scalar RSUExampleScenario.node[48].veinsmobility 	totalCO2Emission 	706.09137604569
scalar RSUExampleScenario.node[49].veinsmobility 	startTime 	147.1
scalar RSUExampleScenario.node[49].veinsmobility 	totalTime 	285
scalar RSUExampleScenario.node[49].veinsmobility 	stopTime 	432.2
scalar RSUExampleScenario.node[49].veinsmobility 	minSpeed 	0.25560951720644
scalar RSUExampleScenario.node[49].veinsmobility 	maxSpeed 	13.99987646858
scalar RSUExampleScenario.node[49].veinsmobility 	totalDistance 	3410.1897844463
scalar RSUExampleScenario.node[49].veinsmobility 	totalCO2Emission 	707.96391442765
scalar RSUExampleScenario.node[50].veinsmobility 	startTime 	150.1
scalar RSUExampleScenario.node[50].veinsmobility 	totalTime 	285.7
scalar RSUExampleScenario.node[50].veinsmobility 	stopTime 	435.9
scalar RSUExampleScenario.node[50].veinsmobility 	minSpeed 	0.24975532960426
scalar RSUExampleScenario.node[50].veinsmobility 	maxSpeed 	13.999961257677
scalar RSUExampleScenario.node[50].veinsmobility 	totalDistance 	3414.0705777718
scalar RSUExampleScenario.node[50].veinsmobility 	totalCO2Emission 	705.02457688901
scalar RSUExampleScenario.node[51].veinsmobility 	startTime 	153.1
scalar RSUExampleScenario.node[51].veinsmobility 	totalTime 	286.4
scalar RSUExampleScenario.node[51].veinsmobility 	stopTime 	439.6
scalar RSUExampleScenario.node[51].veinsmobility 	minSpeed 	0.24878656520299
scalar RSUExampleScenario.node[51].veinsmobility 	maxSpeed 	13.999997596177
scalar RSUExampleScenario.node[51].veinsmobility 	totalDistance 	3410.1091160678
scalar RSUExampleScenario.node[51].veinsmobility 	totalCO2Emission 	707.72167830611
scalar RSUExampleScenario.node[52].veinsmobility 	startTime 	156.1
scalar RSUExampleScenario.node[52].veinsmobility 	totalTime 	287.1
scalar RSUExampleScenario.node[52].veinsmobility 	stopTime 	443.3
scalar RSUExampleScenario.node[52].veinsmobility 	minSpeed 	0.25515744640981
scalar RSUExampleScenario.node[52].veinsmobility 	maxSpeed 	13.999847164117
scalar RSUExampleScenario.node[52].veinsmobility 	totalDistance 	3409.800590724
scalar RSUExampleScenario.node[52].veinsmobility 	totalCO2Emission 	710.41304522406
scalar RSUExampleScenario.node[53].veinsmobility 	startTime 	159.1
scalar RSUExampleScenario.node[53].veinsmobility 	totalTime 	287.8
scalar RSUExampleScenario.node[53].veinsmobility 	stopTime 	447
scalar RSUExampleScenario.node[53].veinsmobility 	minSpeed 	0.25161916847015
scalar RSUExampleScenario.node[53].veinsmobility 	maxSpeed 	13.999958020668
scalar RSUExampleScenario.node[53].veinsmobility 	totalDistance 	3414.1479617261
scalar RSUExampleScenario.node[53].veinsmobility 	totalCO2Emission 	708.83003876108
scalar RSUExampleScenario.node[54].veinsmobility 	startTime 	162.1
scalar RSUExampleScenario.node[54].veinsmobility 	totalTime 	288.5
scalar RSUExampleScenario.node[54].veinsmobility 	stopTime 	450.7
scalar RSUExampleScenario.node[54].veinsmobility 	minSpeed 	0.25315178609826
scalar RSUExampleScenario.node[54].veinsmobility 	maxSpeed 	13.999980297904
scalar RSUExampleScenario.node[54].veinsmobility 	totalDistance 	3409.7512795679
scalar RSUExampleScenario.node[54].veinsmobility 	totalCO2Emission 	709.73480156933
scalar RSUExampleScenario.node[55].veinsmobility 	startTime 	165.1
scalar RSUExampleScenario.node[55].veinsmobility 	totalTime 	289.2
scalar RSUExampleScenario.node[55].veinsmobility 	stopTime 	454.4
scalar RSUExampleScenario.node[55].veinsmobility 	minSpeed 	0.25365468115569
scalar RSUExampleScenario.node[55].veinsmobility 	maxSpeed 	13.999970273934
scalar RSUExampleScenario.node[55].veinsmobility 	totalDistance 	3413.7807245069
scalar RSUExampleScenario.node[55].veinsmobility 	totalCO2Emission 	711.24525839053
scalar RSUExampleScenario.node[56].veinsmobility 	startTime 	168.1
scalar RSUExampleScenario.node[56].veinsmobility 	totalTime 	289.9
scalar RSUExampleScenario.node[56].veinsmobility 	stopTime 	458.1
scalar RSUExampleScenario.node[56].veinsmobility 	minSpeed 	0.25362036449625
scalar RSUExampleScenario.node[56].veinsmobility 	maxSpeed 	13.999962239661
scalar RSUExampleScenario.node[56].veinsmobility 	totalDistance 	3410.0848248699
scalar RSUExampleScenario.node[56].veinsmobility 	totalCO2Emission 	712.3445441143
scalar RSUExampleScenario.node[57].veinsmobility 	startTime 	171.1
scalar RSUExampleScenario.node[57].veinsmobility 	totalTime 	290.6
scalar RSUExampleScenario.node[57].veinsmobility 	stopTime 	461.8
scalar RSUExampleScenario.node[57].veinsmobility 	minSpeed 	0.25249221890559
scalar RSUExampleScenario.node[57].veinsmobility 	maxSpeed 	13.999994540019
scalar RSUExampleScenario.node[57].veinsmobility 	totalDistance 	3413.7799296618
scalar RSUExampleScenario.node[57].veinsmobility 	totalCO2Emission 	712.62121964537
scalar RSUExampleScenario.node[58].veinsmobility 	startTime 	174.1
scalar RSUExampleScenario.node[58].veinsmobility 	totalTime 	291.3
scalar RSUExampleScenario.node[58].veinsmobility 	stopTime 	465.5
scalar RSUExampleScenario.node[58].veinsmobility 	minSpeed 	0.25766010861448
scalar RSUExampleScenario.node[58].veinsmobility 	maxSpeed 	13.999937348664
scalar RSUExampleScenario.node[58].veinsmobility 	totalDistance 	3409.6852407564
scalar RSUExampleScenario.node[58].veinsmobility 	totalCO2Emission 	712.21598544235
scalar RSUExampleScenario.node[59].veinsmobility 	startTime 	177.1
scalar RSUExampleScenario.node[59].veinsmobility 	totalTime 	292
scalar RSUExampleScenario.node[59].veinsmobility 	stopTime 	469.2
scalar RSUExampleScenario.node[59].veinsmobility 	minSpeed 	0.25122075243876
scalar RSUExampleScenario.node[59].veinsmobility 	maxSpeed 	13.999967138171
scalar RSUExampleScenario.node[59].veinsmobility 	totalDistance 	3413.9480416845
scalar RSUExampleScenario.node[59].veinsmobility 	totalCO2Emission 	715.07836280332
scalar RSUExampleScenario.node[60].veinsmobility 	startTime 	180.1
scalar RSUExampleScenario.node[60].veinsmobility 	totalTime 	292.7
scalar RSUExampleScenario.node[60].veinsmobility 	stopTime 	472.9
scalar RSUExampleScenario.node[60].veinsmobility 	minSpeed 	0.24996131429612
scalar RSUExampleScenario.node[60].veinsmobility 	maxSpeed 	13.999935306332
scalar RSUExampleScenario.node[60].veinsmobility 	totalDistance 	3410.0378710359
scalar RSUExampleScenario.node[60].veinsmobility 	totalCO2Emission 	714.19131585229
scalar RSUExampleScenario.node[61].veinsmobility 	startTime 	183.1
scalar RSUExampleScenario.node[61].veinsmobility 	totalTime 	293.4
scalar RSUExampleScenario.node[61].veinsmobility 	stopTime 	476.6
scalar RSUExampleScenario.node[61].veinsmobility 	minSpeed 	0.25236096913135
scalar RSUExampleScenario.node[61].veinsmobility 	maxSpeed 	13.99993766224
scalar RSUExampleScenario.node[61].veinsmobility 	totalDistance 	3413.9054868243
scalar RSUExampleScenario.node[61].veinsmobility 	totalCO2Emission 	715.54258549889
scalar RSUExampleScenario.node[62].veinsmobility 	startTime 	186.1
scalar RSUExampleScenario.node[62].veinsmobility 	totalTime 	294.1
scalar RSUExampleScenario.node[62].veinsmobility 	stopTime 	480.3
scalar RSUExampleScenario.node[62].veinsmobility 	minSpeed 	0.25831371445209
scalar RSUExampleScenario.node[62].veinsmobility 	maxSpeed 	13.999881376775
scalar RSUExampleScenario.node[62].veinsmobility 	totalDistance 	3409.7886135026
scalar RSUExampleScenario.node[62].veinsmobility 	totalCO2Emission 	712.24713340293
scalar RSUExampleScenario.node[63].veinsmobility 	startTime 	189.1
scalar RSUExampleScenario.node[63].veinsmobility 	totalTime 	294.9
scalar RSUExampleScenario.node[63].veinsmobility 	stopTime 	484.1
scalar RSUExampleScenario.node[63].veinsmobility 	minSpeed 	0.25232670825883
scalar RSUExampleScenario.node[63].veinsmobility 	maxSpeed 	13.99999575089
scalar RSUExampleScenario.node[63].veinsmobility 	totalDistance 	3413.864621082
scalar RSUExampleScenario.node[63].veinsmobility 	totalCO2Emission 	714.0098614868
scalar RSUExampleScenario.node[64].veinsmobility 	startTime 	192.1
scalar RSUExampleScenario.node[64].veinsmobility 	totalTime 	295.7
scalar RSUExampleScenario.node[64].veinsmobility 	stopTime 	487.9
scalar RSUExampleScenario.node[64].veinsmobility 	minSpeed 	0.25259889214253
scalar RSUExampleScenario.node[64].veinsmobility 	maxSpeed 	13.999951997551
scalar RSUExampleScenario.node[64].veinsmobility 	totalDistance 	3409.8880058443
scalar RSUExampleScenario.node[64].veinsmobility 	totalCO2Emission 	718.40724546147
scalar RSUExampleScenario.node[65].veinsmobility 	startTime 	195.1
scalar RSUExampleScenario.node[65].veinsmobility 	totalTime 	296.4
scalar RSUExampleScenario.node[65].veinsmobility 	stopTime 	491.6
scalar RSUExampleScenario.node[65].veinsmobility 	minSpeed 	0.25878789229388
scalar RSUExampleScenario.node[65].veinsmobility 	maxSpeed 	13.999897916473
scalar RSUExampleScenario.node[65].veinsmobility 	totalDistance 	3413.9707258696
scalar RSUExampleScenario.node[65].veinsmobility 	totalCO2Emission 	718.99183644518
scalar RSUExampleScenario.node[66].veinsmobility 	startTime 	198.1
scalar RSUExampleScenario.node[66].veinsmobility 	totalTime 	297
scalar RSUExampleScenario.node[66].veinsmobility 	stopTime 	495.2
scalar RSUExampleScenario.node[66].veinsmobility 	minSpeed 	0.24798771515558
scalar RSUExampleScenario.node[66].veinsmobility 	maxSpeed 	13.999980407171
scalar RSUExampleScenario.node[66].veinsmobility 	totalDistance 	3410.0394697145
scalar RSUExampleScenario.node[66].veinsmobility 	totalCO2Emission 	717.70187199734
scalar RSUExampleScenario.node[67].veinsmobility 	startTime 	201.1
scalar RSUExampleScenario.node[67].veinsmobility 	totalTime 	297.6
scalar RSUExampleScenario.node[67].veinsmobility 	stopTime 	498.8
scalar RSUExampleScenario.node[67].veinsmobility 	minSpeed 	0.25082153921225
scalar RSUExampleScenario.node[67].veinsmobility 	maxSpeed 	13.999922697931
scalar RSUExampleScenario.node[67].veinsmobility 	totalDistance 	3413.8779371548
scalar RSUExampleScenario.node[67].veinsmobility 	totalCO2Emission 	720.5028499161
scalar RSUExampleScenario.node[68].veinsmobility 	startTime 	204.1
scalar RSUExampleScenario.node[68].veinsmobility 	totalTime 	298.3
scalar RSUExampleScenario.node[68].veinsmobility 	stopTime 	502.5
scalar RSUExampleScenario.node[68].veinsmobility 	minSpeed 	0.25648524867999
scalar RSUExampleScenario.node[68].veinsmobility 	maxSpeed 	13.999914075641
scalar RSUExampleScenario.node[68].veinsmobility 	totalDistance 	3409.6669288787
scalar RSUExampleScenario.node[68].veinsmobility 	totalCO2Emission 	720.80114387081
scalar RSUExampleScenario.node[69].veinsmobility 	startTime 	207.1
scalar RSUExampleScenario.node[69].veinsmobility 	totalTime 	299
scalar RSUExampleScenario.node[69].veinsmobility 	stopTime 	506.2
scalar RSUExampleScenario.node[69].veinsmobility 	minSpeed 	0.24812019307446
scalar RSUExampleScenario.node[69].veinsmobility 	maxSpeed 	13.999944650179
scalar RSUExampleScenario.node[69].veinsmobility 	totalDistance 	3409.939354542
scalar RSUExampleScenario.node[69].veinsmobility 	totalCO2Emission 	723.44802115621
scalar RSUExampleScenario.node[70].veinsmobility 	startTime 	210.1
scalar RSUExampleScenario.node[70].veinsmobility 	totalTime 	299.7
scalar RSUExampleScenario.node[70].veinsmobility 	stopTime 	509.9
scalar RSUExampleScenario.node[70].veinsmobility 	minSpeed 	0.25173345716507
scalar RSUExampleScenario.node[70].veinsmobility 	maxSpeed 	13.999995513104
scalar RSUExampleScenario.node[70].veinsmobility 	totalDistance 	3414.0473347828
scalar RSUExampleScenario.node[70].veinsmobility 	totalCO2Emission 	722.76823871858
scalar RSUExampleScenario.node[71].veinsmobility 	startTime 	213.1
scalar RSUExampleScenario.node[71].veinsmobility 	totalTime 	300.4
scalar RSUExampleScenario.node[71].veinsmobility 	stopTime 	513.6
scalar RSUExampleScenario.node[71].veinsmobility 	minSpeed 	0.2505882583654
scalar RSUExampleScenario.node[71].veinsmobility 	maxSpeed 	13.999923027458
scalar RSUExampleScenario.node[71].veinsmobility 	totalDistance 	3409.9166337006
scalar RSUExampleScenario.node[71].veinsmobility 	totalCO2Emission 	720.62583662787
scalar RSUExampleScenario.node[72].veinsmobility 	startTime 	216.1
scalar RSUExampleScenario.node[72].veinsmobility 	totalTime 	301.1
scalar RSUExampleScenario.node[72].veinsmobility 	stopTime 	517.3
scalar RSUExampleScenario.node[72].veinsmobility 	minSpeed 	0.24791272376524
scalar RSUExampleScenario.node[72].veinsmobility 	maxSpeed 	13.999990189723
scalar RSUExampleScenario.node[72].veinsmobility 	totalDistance 	3414.0728960029
scalar RSUExampleScenario.node[72].veinsmobility 	totalCO2Emission 	723.96996950591
scalar RSUExampleScenario.node[73].veinsmobility 	startTime 	219.1
scalar RSUExampleScenario.node[73].veinsmobility 	totalTime 	301.8
scalar RSUExampleScenario.node[73].veinsmobility 	stopTime 	521
scalar RSUExampleScenario.node[73].veinsmobility 	minSpeed 	0.25411342296447
scalar RSUExampleScenario.node[73].veinsmobility 	maxSpeed 	13.999776445848
scalar RSUExampleScenario.node[73].veinsmobility 	totalDistance 	3409.8396804752
scalar RSUExampleScenario.node[73].veinsmobility 	totalCO2Emission 	720.50420032445
scalar RSUExampleScenario.node[74].veinsmobility 	startTime 	222.1
scalar RSUExampleScenario.node[74].veinsmobility 	totalTime 	302.6
scalar RSUExampleScenario.node[74].veinsmobility 	stopTime 	524.8
scalar RSUExampleScenario.node[74].veinsmobility 	minSpeed 	0.25321926905517
scalar RSUExampleScenario.node[74].veinsmobility 	maxSpeed 	13.999875386651
scalar RSUExampleScenario.node[74].veinsmobility 	totalDistance 	3414.2554832622
scalar RSUExampleScenario.node[74].veinsmobility 	totalCO2Emission 	722.21245822937
scalar RSUExampleScenario.node[75].veinsmobility 	startTime 	225.1
scalar RSUExampleScenario.node[75].veinsmobility 	totalTime 	303.3
scalar RSUExampleScenario.node[75].veinsmobility 	stopTime 	528.5
scalar RSUExampleScenario.node[75].veinsmobility 	minSpeed 	0.24713182575582
scalar RSUExampleScenario.node[75].veinsmobility 	maxSpeed 	13.999840623841
scalar RSUExampleScenario.node[75].veinsmobility 	totalDistance 	3409.7971426297
scalar RSUExampleScenario.node[75].veinsmobility 	totalCO2Emission 	726.20821180186
scalar RSUExampleScenario.node[76].veinsmobility 	startTime 	228.1
scalar RSUExampleScenario.node[76].veinsmobility 	totalTime 	304
scalar RSUExampleScenario.node[76].veinsmobility 	stopTime 	532.2
scalar RSUExampleScenario.node[76].veinsmobility 	minSpeed 	0.25554478452262
scalar RSUExampleScenario.node[76].veinsmobility 	maxSpeed 	13.999999573706
scalar RSUExampleScenario.node[76].veinsmobility 	totalDistance 	3414.2332825383
scalar RSUExampleScenario.node[76].veinsmobility 	totalCO2Emission 	728.92117567861
scalar RSUExampleScenario.node[77].veinsmobility 	startTime 	231.1
scalar RSUExampleScenario.node[77].veinsmobility 	totalTime 	304.7
scalar RSUExampleScenario.node[77].veinsmobility 	stopTime 	535.9
scalar RSUExampleScenario.node[77].veinsmobility 	minSpeed 	0.2482870491452
scalar RSUExampleScenario.node[77].veinsmobility 	maxSpeed 	13.999853708146
scalar RSUExampleScenario.node[77].veinsmobility 	totalDistance 	3409.6310885297
scalar RSUExampleScenario.node[77].veinsmobility 	totalCO2Emission 	725.38136027222
scalar RSUExampleScenario.node[78].veinsmobility 	startTime 	234.1
scalar RSUExampleScenario.node[78].veinsmobility 	totalTime 	305.3
scalar RSUExampleScenario.node[78].veinsmobility 	stopTime 	539.5
scalar RSUExampleScenario.node[78].veinsmobility 	minSpeed 	0.25121371560474
scalar RSUExampleScenario.node[78].veinsmobility 	maxSpeed 	13.99975821753
scalar RSUExampleScenario.node[78].veinsmobility 	totalDistance 	3413.6284602673
scalar RSUExampleScenario.node[78].veinsmobility 	totalCO2Emission 	726.47586453125
scalar RSUExampleScenario.node[79].veinsmobility 	startTime 	237.1
scalar RSUExampleScenario.node[79].veinsmobility 	totalTime 	306
scalar RSUExampleScenario.node[79].veinsmobility 	stopTime 	543.2
scalar RSUExampleScenario.node[79].veinsmobility 	minSpeed 	0.24739045784296
scalar RSUExampleScenario.node[79].veinsmobility 	maxSpeed 	13.999760033216
scalar RSUExampleScenario.node[79].veinsmobility 	totalDistance 	3409.9159435304
scalar RSUExampleScenario.node[79].veinsmobility 	totalCO2Emission 	728.10552211216
scalar RSUExampleScenario.node[80].veinsmobility 	startTime 	240.1
scalar RSUExampleScenario.node[80].veinsmobility 	totalTime 	306.6
scalar RSUExampleScenario.node[80].veinsmobility 	stopTime 	546.8
scalar RSUExampleScenario.node[80].veinsmobility 	minSpeed 	0.2534715348864
scalar RSUExampleScenario.node[80].veinsmobility 	maxSpeed 	13.999833850502
scalar RSUExampleScenario.node[80].veinsmobility 	totalDistance 	3413.739144554
scalar RSUExampleScenario.node[80].veinsmobility 	totalCO2Emission 	728.61662270718
scalar RSUExampleScenario.node[81].veinsmobility 	startTime 	243.1
scalar RSUExampleScenario.node[81].veinsmobility 	totalTime 	307.3
scalar RSUExampleScenario.node[81].veinsmobility 	stopTime 	550.5
scalar RSUExampleScenario.node[81].veinsmobility 	minSpeed 	0.25042836302891
scalar RSUExampleScenario.node[81].veinsmobility 	maxSpeed 	13.999996582987
scalar RSUExampleScenario.node[81].veinsmobility 	totalDistance 	3409.8911057064
scalar RSUExampleScenario.node[81].veinsmobility 	totalCO2Emission 	731.28286630351
scalar RSUExampleScenario.node[82].veinsmobility 	startTime 	246.1
scalar RSUExampleScenario.node[82].veinsmobility 	totalTime 	307.9
scalar RSUExampleScenario.node[82].veinsmobility 	stopTime 	554.1
scalar RSUExampleScenario.node[82].veinsmobility 	minSpeed 	0.24864934155485
scalar RSUExampleScenario.node[82].veinsmobility 	maxSpeed 	13.999957893754
scalar RSUExampleScenario.node[82].veinsmobility 	totalDistance 	3413.5999517797
scalar RSUExampleScenario.node[82].veinsmobility 	totalCO2Emission 	730.54168809209
scalar RSUExampleScenario.node[83].veinsmobility 	startTime 	249.1
scalar RSUExampleScenario.node[83].veinsmobility 	totalTime 	308.5
scalar RSUExampleScenario.node[83].veinsmobility 	stopTime 	557.7
scalar RSUExampleScenario.node[83].veinsmobility 	minSpeed 	0.25401133668004
scalar RSUExampleScenario.node[83].veinsmobility 	maxSpeed 	13.999902160619
scalar RSUExampleScenario.node[83].veinsmobility 	totalDistance 	3410.0793452489
scalar RSUExampleScenario.node[83].veinsmobility 	totalCO2Emission 	730.64304326962
scalar RSUExampleScenario.node[84].veinsmobility 	startTime 	252.1
scalar RSUExampleScenario.node[84].veinsmobility 	totalTime 	309.2
scalar RSUExampleScenario.node[84].veinsmobility 	stopTime 	561.4
scalar RSUExampleScenario.node[84].veinsmobility 	minSpeed 	0.25284877491486
scalar RSUExampleScenario.node[84].veinsmobility 	maxSpeed 	13.999868651661
scalar RSUExampleScenario.node[84].veinsmobility 	totalDistance 	3410.1061473321
scalar RSUExampleScenario.node[84].veinsmobility 	totalCO2Emission 	734.75848675436
scalar RSUExampleScenario.node[85].veinsmobility 	startTime 	255.1
scalar RSUExampleScenario.node[85].veinsmobility 	totalTime 	309.8
scalar RSUExampleScenario.node[85].veinsmobility 	stopTime 	565
scalar RSUExampleScenario.node[85].veinsmobility 	minSpeed 	0.24753900585463
scalar RSUExampleScenario.node[85].veinsmobility 	maxSpeed 	13.999981653576
scalar RSUExampleScenario.node[85].veinsmobility 	totalDistance 	3413.6556048282
scalar RSUExampleScenario.node[85].veinsmobility 	totalCO2Emission 	733.13075723205
scalar RSUExampleScenario.node[86].veinsmobility 	startTime 	258.1
scalar RSUExampleScenario.node[86].veinsmobility 	totalTime 	310.5
scalar RSUExampleScenario.node[86].veinsmobility 	stopTime 	568.7
scalar RSUExampleScenario.node[86].veinsmobility 	minSpeed 	0.24769044304523
scalar RSUExampleScenario.node[86].veinsmobility 	maxSpeed 	13.999908574284
scalar RSUExampleScenario.node[86].veinsmobility 	totalDistance 	3409.5500829125
scalar RSUExampleScenario.node[86].veinsmobility 	totalCO2Emission 	733.51680337955
scalar RSUExampleScenario.node[87].veinsmobility 	startTime 	261.1
scalar RSUExampleScenario.node[87].veinsmobility 	totalTime 	311.1
scalar RSUExampleScenario.node[87].veinsmobility 	stopTime 	572.3
scalar RSUExampleScenario.node[87].veinsmobility 	minSpeed 	0.25628965920932
scalar RSUExampleScenario.node[87].veinsmobility 	maxSpeed 	13.999897173243
scalar RSUExampleScenario.node[87].veinsmobility 	totalDistance 	3413.5347599437
scalar RSUExampleScenario.node[87].veinsmobility 	totalCO2Emission 	734.77078994383
scalar RSUExampleScenario.node[88].veinsmobility 	startTime 	264.1
scalar RSUExampleScenario.node[88].veinsmobility 	totalTime 	311.7
scalar RSUExampleScenario.node[88].veinsmobility 	stopTime 	575.9
scalar RSUExampleScenario.node[88].veinsmobility 	minSpeed 	0.25395582640567
scalar RSUExampleScenario.node[88].veinsmobility 	maxSpeed 	13.999938287667
scalar RSUExampleScenario.node[88].veinsmobility 	totalDistance 	3409.7380555823
scalar RSUExampleScenario.node[88].veinsmobility 	totalCO2Emission 	736.79922637963
scalar RSUExampleScenario.node[89].veinsmobility 	startTime 	267.1
scalar RSUExampleScenario.node[89].veinsmobility 	totalTime 	312.3
scalar RSUExampleScenario.node[89].veinsmobility 	stopTime 	579.5
scalar RSUExampleScenario.node[89].veinsmobility 	minSpeed 	0.25496261202241
scalar RSUExampleScenario.node[89].veinsmobility 	maxSpeed 	13.999885520735
scalar RSUExampleScenario.node[89].veinsmobility 	totalDistance 	3413.5984904941
scalar RSUExampleScenario.node[89].veinsmobility 	totalCO2Emission 	734.51685354325
scalar RSUExampleScenario.node[90].veinsmobility 	startTime 	270.1
scalar RSUExampleScenario.node[90].veinsmobility 	totalTime 	312.9
scalar RSUExampleScenario.node[90].veinsmobility 	stopTime 	583.1
scalar RSUExampleScenario.node[90].veinsmobility 	minSpeed 	0.25726582011604
scalar RSUExampleScenario.node[90].veinsmobility 	maxSpeed 	13.999925168857
scalar RSUExampleScenario.node[90].veinsmobility 	totalDistance 	3409.9174312874
scalar RSUExampleScenario.node[90].veinsmobility 	totalCO2Emission 	734.73899073524
scalar RSUExampleScenario.node[91].veinsmobility 	startTime 	273.1
scalar RSUExampleScenario.node[91].veinsmobility 	totalTime 	313.6
scalar RSUExampleScenario.node[91].veinsmobility 	stopTime 	586.8
scalar RSUExampleScenario.node[91].veinsmobility 	minSpeed 	0.24778727224702
scalar RSUExampleScenario.node[91].veinsmobility 	maxSpeed 	13.999908263523
scalar RSUExampleScenario.node[91].veinsmobility 	totalDistance 	3414.080894644
scalar RSUExampleScenario.node[91].veinsmobility 	totalCO2Emission 	735.21912060003
scalar RSUExampleScenario.node[92].veinsmobility 	startTime 	276.1
scalar RSUExampleScenario.node[92].veinsmobility 	totalTime 	314.2
scalar RSUExampleScenario.node[92].veinsmobility 	stopTime 	590.4
scalar RSUExampleScenario.node[92].veinsmobility 	minSpeed 	0.24750613289932
scalar RSUExampleScenario.node[92].veinsmobility 	maxSpeed 	13.999949025325
scalar RSUExampleScenario.node[92].veinsmobility 	totalDistance 	3409.5485868966
scalar RSUExampleScenario.node[92].veinsmobility 	totalCO2Emission 	735.76706706586
scalar RSUExampleScenario.node[93].veinsmobility 	startTime 	279.1
scalar RSUExampleScenario.node[93].veinsmobility 	totalTime 	314.9
scalar RSUExampleScenario.node[93].veinsmobility 	stopTime 	594.1
scalar RSUExampleScenario.node[93].veinsmobility 	minSpeed 	0.2507696605965
scalar RSUExampleScenario.node[93].veinsmobility 	maxSpeed 	13.999940726783
scalar RSUExampleScenario.node[93].veinsmobility 	totalDistance 	3413.9135944921
scalar RSUExampleScenario.node[93].veinsmobility 	totalCO2Emission 	738.32778314774
scalar RSUExampleScenario.node[94].veinsmobility 	startTime 	282.1
scalar RSUExampleScenario.node[94].veinsmobility 	totalTime 	315.5
scalar RSUExampleScenario.node[94].veinsmobility 	stopTime 	597.7
scalar RSUExampleScenario.node[94].veinsmobility 	minSpeed 	0.25451210051728
scalar RSUExampleScenario.node[94].veinsmobility 	maxSpeed 	13.999981369057
scalar RSUExampleScenario.node[94].veinsmobility 	totalDistance 	3409.4205462685
scalar RSUExampleScenario.node[94].veinsmobility 	totalCO2Emission 	734.67476579317
scalar RSUExampleScenario.node[95].veinsmobility 	startTime 	285.1
scalar RSUExampleScenario.node[95].veinsmobility 	totalTime 	316.2
scalar RSUExampleScenario.node[95].veinsmobility 	stopTime 	601.4
scalar RSUExampleScenario.node[95].veinsmobility 	minSpeed 	0.25621639862703
scalar RSUExampleScenario.node[95].veinsmobility 	maxSpeed 	13.999963706871
scalar RSUExampleScenario.node[95].veinsmobility 	totalDistance 	3413.8316422051
scalar RSUExampleScenario.node[95].veinsmobility 	totalCO2Emission 	739.94165637939
scalar RSUExampleScenario.node[96].veinsmobility 	startTime 	288.1
scalar RSUExampleScenario.node[96].veinsmobility 	totalTime 	316.9
scalar RSUExampleScenario.node[96].veinsmobility 	stopTime 	605.1
scalar RSUExampleScenario.node[96].veinsmobility 	minSpeed 	0.25373316838918
scalar RSUExampleScenario.node[96].veinsmobility 	maxSpeed 	13.999972407918
scalar RSUExampleScenario.node[96].veinsmobility 	totalDistance 	3409.8561926498
scalar RSUExampleScenario.node[96].veinsmobility 	totalCO2Emission 	740.12882755743
scalar RSUExampleScenario.node[97].veinsmobility 	startTime 	291.1
scalar RSUExampleScenario.node[97].veinsmobility 	totalTime 	317.6
scalar RSUExampleScenario.node[97].veinsmobility 	stopTime 	608.8
scalar RSUExampleScenario.node[97].veinsmobility 	minSpeed 	0.25319876509625
scalar RSUExampleScenario.node[97].veinsmobility 	maxSpeed 	13.99990725118
scalar RSUExampleScenario.node[97].veinsmobility 	totalDistance 	3413.6916931748
scalar RSUExampleScenario.node[97].veinsmobility 	totalCO2Emission 	734.08904071438
scalar RSUExampleScenario.node[98].veinsmobility 	startTime 	294.1
scalar RSUExampleScenario.node[98].veinsmobility 	totalTime 	318.3
scalar RSUExampleScenario.node[98].veinsmobility 	stopTime 	612.5
scalar RSUExampleScenario.node[98].veinsmobility 	minSpeed 	0.2540271982688
scalar RSUExampleScenario.node[98].veinsmobility 	maxSpeed 	13.999868689738
scalar RSUExampleScenario.node[98].veinsmobility 	totalDistance 	3409.5324130652
scalar RSUExampleScenario.node[98].veinsmobility 	totalCO2Emission 	744.57287890653
scalar RSUExampleScenario.node[99].veinsmobility 	startTime 	297.1
scalar RSUExampleScenario.node[99].veinsmobility 	totalTime 	319
scalar RSUExampleScenario.node[99].veinsmobility 	stopTime 	616.2
scalar RSUExampleScenario.node[99].veinsmobility 	minSpeed 	0.24893492548051
scalar RSUExampleScenario.node[99].veinsmobility 	maxSpeed 	13.99982117757
scalar RSUExampleScenario.node[99].veinsmobility 	totalDistance 	3414.0233358204
scalar RSUExampleScenario.node[99].veinsmobility 	totalCO2Emission 	740.5389769777
scalar RSUExampleScenario.node[100].veinsmobility 	startTime 	300.1
scalar RSUExampleScenario.node[100].veinsmobility 	totalTime 	319.7
scalar RSUExampleScenario.node[100].veinsmobility 	stopTime 	619.9
scalar RSUExampleScenario.node[100].veinsmobility 	minSpeed 	0.25925763847004
scalar RSUExampleScenario.node[100].veinsmobility 	maxSpeed 	13.999929442576
scalar RSUExampleScenario.node[100].veinsmobility 	totalDistance 	3410.0526373128
scalar RSUExampleScenario.node[100].veinsmobility 	totalCO2Emission 	743.14048088412
scalar RSUExampleScenario.node[101].veinsmobility 	startTime 	303.1
scalar RSUExampleScenario.node[101].veinsmobility 	totalTime 	320.4
scalar RSUExampleScenario.node[101].veinsmobility 	stopTime 	623.6
scalar RSUExampleScenario.node[101].veinsmobility 	minSpeed 	0.25624019229505
scalar RSUExampleScenario.node[101].veinsmobility 	maxSpeed 	13.999943426051
scalar RSUExampleScenario.node[101].veinsmobility 	totalDistance 	3414.1632395392
scalar RSUExampleScenario.node[101].veinsmobility 	totalCO2Emission 	743.52231937511
scalar RSUExampleScenario.node[102].veinsmobility 	startTime 	306.1
scalar RSUExampleScenario.node[102].veinsmobility 	totalTime 	321.1
scalar RSUExampleScenario.node[102].veinsmobility 	stopTime 	627.3
scalar RSUExampleScenario.node[102].veinsmobility 	minSpeed 	0.25362755257939
scalar RSUExampleScenario.node[102].veinsmobility 	maxSpeed 	13.999902029589
scalar RSUExampleScenario.node[102].veinsmobility 	totalDistance 	3409.8930300822
scalar RSUExampleScenario.node[102].veinsmobility 	totalCO2Emission 	743.35424095037
scalar RSUExampleScenario.node[103].veinsmobility 	startTime 	309.1
scalar RSUExampleScenario.node[103].veinsmobility 	totalTime 	321.7
scalar RSUExampleScenario.node[103].veinsmobility 	stopTime 	630.9
scalar RSUExampleScenario.node[103].veinsmobility 	minSpeed 	0.25393428116757
scalar RSUExampleScenario.node[103].veinsmobility 	maxSpeed 	13.999864495746
scalar RSUExampleScenario.node[103].veinsmobility 	totalDistance 	3413.8454478128
scalar RSUExampleScenario.node[103].veinsmobility 	totalCO2Emission 	739.60821320793
scalar RSUExampleScenario.node[104].veinsmobility 	startTime 	312.1
scalar RSUExampleScenario.node[104].veinsmobility 	totalTime 	322.3
scalar RSUExampleScenario.node[104].veinsmobility 	stopTime 	634.5
scalar RSUExampleScenario.node[104].veinsmobility 	minSpeed 	0.25234297510562
scalar RSUExampleScenario.node[104].veinsmobility 	maxSpeed 	13.999999481025
scalar RSUExampleScenario.node[104].veinsmobility 	totalDistance 	3409.712595276
scalar RSUExampleScenario.node[104].veinsmobility 	totalCO2Emission 	746.64604837442
scalar RSUExampleScenario.node[105].veinsmobility 	startTime 	315.1
scalar RSUExampleScenario.node[105].veinsmobility 	totalTime 	323
scalar RSUExampleScenario.node[105].veinsmobility 	stopTime 	638.2
scalar RSUExampleScenario.node[105].veinsmobility 	minSpeed 	0.25825336119742
scalar RSUExampleScenario.node[105].veinsmobility 	maxSpeed 	13.999985646165
scalar RSUExampleScenario.node[105].veinsmobility 	totalDistance 	3414.171662935
scalar RSUExampleScenario.node[105].veinsmobility 	totalCO2Emission 	748.98294130678
scalar RSUExampleScenario.node[106].veinsmobility 	startTime 	318.1
scalar RSUExampleScenario.node[106].veinsmobility 	totalTime 	323.7
scalar RSUExampleScenario.node[106].veinsmobility 	stopTime 	641.9
scalar RSUExampleScenario.node[106].veinsmobility 	minSpeed 	0.25320126716583
scalar RSUExampleScenario.node[106].veinsmobility 	maxSpeed 	13.999986220289
scalar RSUExampleScenario.node[106].veinsmobility 	totalDistance 	3409.5079785628
scalar RSUExampleScenario.node[106].veinsmobility 	totalCO2Emission 	747.04166561021
scalar RSUExampleScenario.node[107].veinsmobility 	startTime 	321.1
scalar RSUExampleScenario.node[107].veinsmobility 	totalTime 	324.4
scalar RSUExampleScenario.node[107].veinsmobility 	stopTime 	645.6
scalar RSUExampleScenario.node[107].veinsmobility 	minSpeed 	0.2512793073121
scalar RSUExampleScenario.node[107].veinsmobility 	maxSpeed 	13.999965252294
scalar RSUExampleScenario.node[107].veinsmobility 	totalDistance 	3414.3022943264
scalar RSUExampleScenario.node[107].veinsmobility 	totalCO2Emission 	743.67259334209
scalar RSUExampleScenario.node[108].veinsmobility 	startTime 	324.1
scalar RSUExampleScenario.node[108].veinsmobility 	totalTime 	325.1
scalar RSUExampleScenario.node[108].veinsmobility 	stopTime 	649.3
scalar RSUExampleScenario.node[108].veinsmobility 	minSpeed 	0.25659626861732
scalar RSUExampleScenario.node[108].veinsmobility 	maxSpeed 	13.999859106259
scalar RSUExampleScenario.node[108].veinsmobility 	totalDistance 	3409.533557143
scalar RSUExampleScenario.node[108].veinsmobility 	totalCO2Emission 	746.14083742908
scalar RSUExampleScenario.node[109].veinsmobility 	startTime 	327.1
scalar RSUExampleScenario.node[109].veinsmobility 	totalTime 	325.8
scalar RSUExampleScenario.node[109].veinsmobility 	stopTime 	653
scalar RSUExampleScenario.node[109].veinsmobility 	minSpeed 	0.25667630364955
scalar RSUExampleScenario.node[109].veinsmobility 	maxSpeed 	13.999989503578
scalar RSUExampleScenario.node[109].veinsmobility 	totalDistance 	3413.8060365096
scalar RSUExampleScenario.node[109].veinsmobility 	totalCO2Emission 	747.75137991146
scalar RSUExampleScenario.node[110].veinsmobility 	startTime 	330.1
scalar RSUExampleScenario.node[110].veinsmobility 	totalTime 	326.5
scalar RSUExampleScenario.node[110].veinsmobility 	stopTime 	656.7
scalar RSUExampleScenario.node[110].veinsmobility 	minSpeed 	0.2579508455433
scalar RSUExampleScenario.node[110].veinsmobility 	maxSpeed 	13.999711928975
scalar RSUExampleScenario.node[110].veinsmobility 	totalDistance 	3409.6462526323
scalar RSUExampleScenario.node[110].veinsmobility 	totalCO2Emission 	747.73571290258
scalar RSUExampleScenario.node[111].veinsmobility 	startTime 	333.1
scalar RSUExampleScenario.node[111].veinsmobility 	totalTime 	327.2
scalar RSUExampleScenario.node[111].veinsmobility 	stopTime 	660.4
scalar RSUExampleScenario.node[111].veinsmobility 	minSpeed 	0.24707059024693
scalar RSUExampleScenario.node[111].veinsmobility 	maxSpeed 	13.999949801094
scalar RSUExampleScenario.node[111].veinsmobility 	totalDistance 	3413.7486815468
scalar RSUExampleScenario.node[111].veinsmobility 	totalCO2Emission 	750.77837400154
scalar RSUExampleScenario.node[112].veinsmobility 	startTime 	336.1
scalar RSUExampleScenario.node[112].veinsmobility 	totalTime 	327.9
scalar RSUExampleScenario.node[112].veinsmobility 	stopTime 	664.1
scalar RSUExampleScenario.node[112].veinsmobility 	minSpeed 	0.25269481616211
scalar RSUExampleScenario.node[112].veinsmobility 	maxSpeed 	13.999883663612
scalar RSUExampleScenario.node[112].veinsmobility 	totalDistance 	3409.9913591537
scalar RSUExampleScenario.node[112].veinsmobility 	totalCO2Emission 	749.91882861242
scalar RSUExampleScenario.node[113].veinsmobility 	startTime 	339.1
scalar RSUExampleScenario.node[113].veinsmobility 	totalTime 	328.6
scalar RSUExampleScenario.node[113].veinsmobility 	stopTime 	667.8
scalar RSUExampleScenario.node[113].veinsmobility 	minSpeed 	0.25423486579093
scalar RSUExampleScenario.node[113].veinsmobility 	maxSpeed 	13.999947016682
scalar RSUExampleScenario.node[113].veinsmobility 	totalDistance 	3413.8577668225
scalar RSUExampleScenario.node[113].veinsmobility 	totalCO2Emission 	749.15262945273
scalar RSUExampleScenario.node[114].veinsmobility 	startTime 	342.1
scalar RSUExampleScenario.node[114].veinsmobility 	totalTime 	329.3
scalar RSUExampleScenario.node[114].veinsmobility 	stopTime 	671.5
scalar RSUExampleScenario.node[114].veinsmobility 	minSpeed 	0.25371477303118
scalar RSUExampleScenario.node[114].veinsmobility 	maxSpeed 	13.999906474382
scalar RSUExampleScenario.node[114].veinsmobility 	totalDistance 	3409.5242218181
scalar RSUExampleScenario.node[114].veinsmobility 	totalCO2Emission 	749.80276603232
scalar RSUExampleScenario.node[115].veinsmobility 	startTime 	345.1
scalar RSUExampleScenario.node[115].veinsmobility 	totalTime 	330
scalar RSUExampleScenario.node[115].veinsmobility 	stopTime 	675.2
scalar RSUExampleScenario.node[115].veinsmobility 	minSpeed 	0.24847681628773
scalar RSUExampleScenario.node[115].veinsmobility 	maxSpeed 	13.99996196619
scalar RSUExampleScenario.node[115].veinsmobility 	totalDistance 	3413.9057845064
scalar RSUExampleScenario.node[115].veinsmobility 	totalCO2Emission 	752.72884404477
scalar RSUExampleScenario.node[116].veinsmobility 	startTime 	348.1
scalar RSUExampleScenario.node[116].veinsmobility 	totalTime 	330.8
scalar RSUExampleScenario.node[116].veinsmobility 	stopTime 	679
scalar RSUExampleScenario.node[116].veinsmobility 	minSpeed 	0.24791584267514
scalar RSUExampleScenario.node[116].veinsmobility 	maxSpeed 	13.999984202534
scalar RSUExampleScenario.node[116].veinsmobility 	totalDistance 	3410.1351353131
scalar RSUExampleScenario.node[116].veinsmobility 	totalCO2Emission 	754.48977528504
scalar RSUExampleScenario.node[117].veinsmobility 	startTime 	351.1
scalar RSUExampleScenario.node[117].veinsmobility 	totalTime 	331.4
scalar RSUExampleScenario.node[117].veinsmobility 	stopTime 	682.6
scalar RSUExampleScenario.node[117].veinsmobility 	minSpeed 	0.25778410350415
scalar RSUExampleScenario.node[117].veinsmobility 	maxSpeed 	13.999902006101
scalar RSUExampleScenario.node[117].veinsmobility 	totalDistance 	3413.7726583094
scalar RSUExampleScenario.node[117].veinsmobility 	totalCO2Emission 	749.33541361961
scalar RSUExampleScenario.node[118].veinsmobility 	startTime 	354.1
scalar RSUExampleScenario.node[118].veinsmobility 	totalTime 	332.1
scalar RSUExampleScenario.node[118].veinsmobility 	stopTime 	686.3
scalar RSUExampleScenario.node[118].veinsmobility 	minSpeed 	0.25969547119807
scalar RSUExampleScenario.node[118].veinsmobility 	maxSpeed 	13.999934156239
scalar RSUExampleScenario.node[118].veinsmobility 	totalDistance 	3409.5449708613
scalar RSUExampleScenario.node[118].veinsmobility 	totalCO2Emission 	751.8130663892
scalar RSUExampleScenario.node[119].veinsmobility 	startTime 	357.1
scalar RSUExampleScenario.node[119].veinsmobility 	totalTime 	332.8
scalar RSUExampleScenario.node[119].veinsmobility 	stopTime 	690
scalar RSUExampleScenario.node[119].veinsmobility 	minSpeed 	0.25913866282324
scalar RSUExampleScenario.node[119].veinsmobility 	maxSpeed 	13.999999729707
scalar RSUExampleScenario.node[119].veinsmobility 	totalDistance 	3413.8498061229
scalar RSUExampleScenario.node[119].veinsmobility 	totalCO2Emission 	753.43927550731
scalar RSUExampleScenario.node[120].veinsmobility 	startTime 	360.1
scalar RSUExampleScenario.node[120].veinsmobility 	totalTime 	333.5
scalar RSUExampleScenario.node[120].veinsmobility 	stopTime 	693.7
scalar RSUExampleScenario.node[120].veinsmobility 	minSpeed 	0.25578665670659
scalar RSUExampleScenario.node[120].veinsmobility 	maxSpeed 	13.999929406799
scalar RSUExampleScenario.node[120].veinsmobility 	totalDistance 	3409.7273267855
scalar RSUExampleScenario.node[120].veinsmobility 	totalCO2Emission 	750.7140245735
scalar RSUExampleScenario.node[121].veinsmobility 	startTime 	363.1
scalar RSUExampleScenario.node[121].veinsmobility 	totalTime 	334.1
scalar RSUExampleScenario.node[121].veinsmobility 	stopTime 	697.3
scalar RSUExampleScenario.node[121].veinsmobility 	minSpeed 	0.2587738761683
scalar RSUExampleScenario.node[121].veinsmobility 	maxSpeed 	13.999895823351
scalar RSUExampleScenario.node[121].veinsmobility 	totalDistance 	3409.5306444926
scalar RSUExampleScenario.node[121].veinsmobility 	totalCO2Emission 	757.07846278566
scalar RSUExampleScenario.node[122].veinsmobility 	startTime 	366.1
scalar RSUExampleScenario.node[122].veinsmobility 	totalTime 	334.8
scalar RSUExampleScenario.node[122].veinsmobility 	stopTime 	701
scalar RSUExampleScenario.node[122].veinsmobility 	minSpeed 	0.25083837578725
scalar RSUExampleScenario.node[122].veinsmobility 	maxSpeed 	13.999968645456
scalar RSUExampleScenario.node[122].veinsmobility 	totalDistance 	3414.0288844676
scalar RSUExampleScenario.node[122].veinsmobility 	totalCO2Emission 	759.81212729282
scalar RSUExampleScenario.node[123].veinsmobility 	startTime 	369.1
scalar RSUExampleScenario.node[123].veinsmobility 	totalTime 	335.4
scalar RSUExampleScenario.node[123].veinsmobility 	stopTime 	704.6
scalar RSUExampleScenario.node[123].veinsmobility 	minSpeed 	0.25694709937694
scalar RSUExampleScenario.node[123].veinsmobility 	maxSpeed 	13.999999137151
scalar RSUExampleScenario.node[123].veinsmobility 	totalDistance 	3409.6053406545
scalar RSUExampleScenario.node[123].veinsmobility 	totalCO2Emission 	760.4531695678
scalar RSUExampleScenario.node[124].veinsmobility 	startTime 	372.1
scalar RSUExampleScenario.node[124].veinsmobility 	totalTime 	336.1
scalar RSUExampleScenario.node[124].veinsmobility 	stopTime 	708.3
scalar RSUExampleScenario.node[124].veinsmobility 	minSpeed 	0.25932284115208
scalar RSUExampleScenario.node[124].veinsmobility 	maxSpeed 	13.999988361446
scalar RSUExampleScenario.node[124].veinsmobility 	totalDistance 	3413.8225708096
scalar RSUExampleScenario.node[124].veinsmobility 	totalCO2Emission 	759.55289500671
scalar RSUExampleScenario.node[125].veinsmobility 	startTime 	375.1
scalar RSUExampleScenario.node[125].veinsmobility 	totalTime 	336.8
scalar RSUExampleScenario.node[125].veinsmobility 	stopTime 	712
scalar RSUExampleScenario.node[125].veinsmobility 	minSpeed 	0.2473691496395
scalar RSUExampleScenario.node[125].veinsmobility 	maxSpeed 	13.999969911566
scalar RSUExampleScenario.node[125].veinsmobility 	totalDistance 	3410.0902672285
scalar RSUExampleScenario.node[125].veinsmobility 	totalCO2Emission 	759.96425492442
scalar RSUExampleScenario.node[126].veinsmobility 	startTime 	378.1
scalar RSUExampleScenario.node[126].veinsmobility 	totalTime 	337.5
scalar RSUExampleScenario.node[126].veinsmobility 	stopTime 	715.7
scalar RSUExampleScenario.node[126].veinsmobility 	minSpeed 	0.25504983016779
scalar RSUExampleScenario.node[126].veinsmobility 	maxSpeed 	13.999983049838
scalar RSUExampleScenario.node[126].veinsmobility 	totalDistance 	3413.7686671289
scalar RSUExampleScenario.node[126].veinsmobility 	totalCO2Emission 	760.07761755325
scalar RSUExampleScenario.node[127].veinsmobility 	startTime 	381.1
scalar RSUExampleScenario.node[127].veinsmobility 	totalTime 	338.2
scalar RSUExampleScenario.node[127].veinsmobility 	stopTime 	719.4
scalar RSUExampleScenario.node[127].veinsmobility 	minSpeed 	0.25371344820154
scalar RSUExampleScenario.node[127].veinsmobility 	maxSpeed 	13.999972101122
scalar RSUExampleScenario.node[127].veinsmobility 	totalDistance 	3409.5371989911
scalar RSUExampleScenario.node[127].veinsmobility 	totalCO2Emission 	762.06367132739
scalar RSUExampleScenario.node[128].veinsmobility 	startTime 	384.1
scalar RSUExampleScenario.node[128].veinsmobility 	totalTime 	338.8
scalar RSUExampleScenario.node[128].veinsmobility 	stopTime 	723
scalar RSUExampleScenario.node[128].veinsmobility 	minSpeed 	0.24960874423524
scalar RSUExampleScenario.node[128].veinsmobility 	maxSpeed 	13.999988306146
scalar RSUExampleScenario.node[128].veinsmobility 	totalDistance 	3413.904356703
scalar RSUExampleScenario.node[128].veinsmobility 	totalCO2Emission 	761.38222386192
scalar RSUExampleScenario.node[129].veinsmobility 	startTime 	387.1
scalar RSUExampleScenario.node[129].veinsmobility 	totalTime 	339.5
scalar RSUExampleScenario.node[129].veinsmobility 	stopTime 	726.7
scalar RSUExampleScenario.node[129].veinsmobility 	minSpeed 	0.24904920008266
scalar RSUExampleScenario.node[129].veinsmobility 	maxSpeed 	13.99999138555
scalar RSUExampleScenario.node[129].veinsmobility 	totalDistance 	3409.8399621087
scalar RSUExampleScenario.node[129].veinsmobility 	totalCO2Emission 	762.87572494903
scalar RSUExampleScenario.node[130].veinsmobility 	startTime 	390.1
scalar RSUExampleScenario.node[130].veinsmobility 	totalTime 	340.1
scalar RSUExampleScenario.node[130].veinsmobility 	stopTime 	730.3
scalar RSUExampleScenario.node[130].veinsmobility 	minSpeed 	0.24833266367763
scalar RSUExampleScenario.node[130].veinsmobility 	maxSpeed 	13.999958476503
scalar RSUExampleScenario.node[130].veinsmobility 	totalDistance 	3413.804564503
scalar RSUExampleScenario.node[130].veinsmobility 	totalCO2Emission 	764.88046786035
scalar RSUExampleScenario.node[131].veinsmobility 	startTime 	393.1
scalar RSUExampleScenario.node[131].veinsmobility 	totalTime 	340.8
scalar RSUExampleScenario.node[131].veinsmobility 	stopTime 	734
scalar RSUExampleScenario.node[131].veinsmobility 	minSpeed 	0.25867883457849
scalar RSUExampleScenario.node[131].veinsmobility 	maxSpeed 	13.999973358514
scalar RSUExampleScenario.node[131].veinsmobility 	totalDistance 	3409.9224445152
scalar RSUExampleScenario.node[131].veinsmobility 	totalCO2Emission 	761.586739689
scalar RSUExampleScenario.node[132].veinsmobility 	startTime 	396.1
scalar RSUExampleScenario.node[132].veinsmobility 	totalTime 	341.5
scalar RSUExampleScenario.node[132].veinsmobility 	stopTime 	737.7
scalar RSUExampleScenario.node[132].veinsmobility 	minSpeed 	0.25994883975852
scalar RSUExampleScenario.node[132].veinsmobility 	maxSpeed 	13.999829271925
scalar RSUExampleScenario.node[132].veinsmobility 	totalDistance 	3413.7477554784
scalar RSUExampleScenario.node[132].veinsmobility 	totalCO2Emission 	765.75991923965
scalar RSUExampleScenario.node[133].veinsmobility 	startTime 	399.1
scalar RSUExampleScenario.node[133].veinsmobility 	totalTime 	342.2
scalar RSUExampleScenario.node[133].veinsmobility 	stopTime 	741.4
scalar RSUExampleScenario.node[133].veinsmobility 	minSpeed 	0.25382344328007
scalar RSUExampleScenario.node[133].veinsmobility 	maxSpeed 	13.999956966767
scalar RSUExampleScenario.node[133].veinsmobility 	totalDistance 	3409.9927289341
scalar RSUExampleScenario.node[133].veinsmobility 	totalCO2Emission 	767.33838386825
scalar RSUExampleScenario.node[134].veinsmobility 	startTime 	402.1
scalar RSUExampleScenario.node[134].veinsmobility 	totalTime 	342.9
scalar RSUExampleScenario.node[134].veinsmobility 	stopTime 	745.1
scalar RSUExampleScenario.node[134].veinsmobility 	minSpeed 	0.25502523123217
scalar RSUExampleScenario.node[134].veinsmobility 	maxSpeed 	13.999969675143
scalar RSUExampleScenario.node[134].veinsmobility 	totalDistance 	3410.1333067314
scalar RSUExampleScenario.node[134].veinsmobility 	totalCO2Emission 	767.16216405129
scalar RSUExampleScenario.node[135].veinsmobility 	startTime 	405.1
scalar RSUExampleScenario.node[135].veinsmobility 	totalTime 	343.6
scalar RSUExampleScenario.node[135].veinsmobility 	stopTime 	748.8
scalar RSUExampleScenario.node[135].veinsmobility 	minSpeed 	0.2598039028293
scalar RSUExampleScenario.node[135].veinsmobility 	maxSpeed 	13.999984636365
scalar RSUExampleScenario.node[135].veinsmobility 	totalDistance 	3413.9776823095
scalar RSUExampleScenario.node[135].veinsmobility 	totalCO2Emission 	765.08088712868
scalar RSUExampleScenario.node[136].veinsmobility 	startTime 	408.1
scalar RSUExampleScenario.node[136].veinsmobility 	totalTime 	344.3
scalar RSUExampleScenario.node[136].veinsmobility 	stopTime 	752.5
scalar RSUExampleScenario.node[136].veinsmobility 	minSpeed 	0.25933752399357
scalar RSUExampleScenario.node[136].veinsmobility 	maxSpeed 	13.99986476619
scalar RSUExampleScenario.node[136].veinsmobility 	totalDistance 	3409.5035948225
scalar RSUExampleScenario.node[136].veinsmobility 	totalCO2Emission 	765.29928789055
scalar RSUExampleScenario.node[137].veinsmobility 	startTime 	411.1
scalar RSUExampleScenario.node[137].veinsmobility 	totalTime 	344.9
scalar RSUExampleScenario.node[137].veinsmobility 	stopTime 	756.1
scalar RSUExampleScenario.node[137].veinsmobility 	minSpeed 	0.25201587061025
scalar RSUExampleScenario.node[137].veinsmobility 	maxSpeed 	13.999952967518
scalar RSUExampleScenario.node[137].veinsmobility 	totalDistance 	3409.8422692831
scalar RSUExampleScenario.node[137].veinsmobility 	totalCO2Emission 	764.75734373945
scalar RSUExampleScenario.node[138].veinsmobility 	startTime 	414.1
scalar RSUExampleScenario.node[138].veinsmobility 	totalTime 	345.5
scalar RSUExampleScenario.node[138].veinsmobility 	stopTime 	759.7
scalar RSUExampleScenario.node[138].veinsmobility 	minSpeed 	0.24759444845887
scalar RSUExampleScenario.node[138].veinsmobility 	maxSpeed 	13.999973111921
scalar RSUExampleScenario.node[138].veinsmobility 	totalDistance 	3414.1983810693
scalar RSUExampleScenario.node[138].veinsmobility 	totalCO2Emission 	763.16933148883
scalar RSUExampleScenario.node[139].veinsmobility 	startTime 	417.1
scalar RSUExampleScenario.node[139].veinsmobility 	totalTime 	346.1
scalar RSUExampleScenario.node[139].veinsmobility 	stopTime 	763.3
scalar RSUExampleScenario.node[139].veinsmobility 	minSpeed 	0.25968979533971
scalar RSUExampleScenario.node[139].veinsmobility 	maxSpeed 	13.99983464425
scalar RSUExampleScenario.node[139].veinsmobility 	totalDistance 	3409.5914081112
scalar RSUExampleScenario.node[139].veinsmobility 	totalCO2Emission 	773.19554880251
scalar RSUExampleScenario.node[140].veinsmobility 	startTime 	420.1
scalar RSUExampleScenario.node[140].veinsmobility 	totalTime 	346.7
scalar RSUExampleScenario.node[140].veinsmobility 	stopTime 	766.9
scalar RSUExampleScenario.node[140].veinsmobility 	minSpeed 	0.25152119854372
scalar RSUExampleScenario.node[140].veinsmobility 	maxSpeed 	13.999979343796
scalar RSUExampleScenario.node[140].veinsmobility 	totalDistance 	3413.8539445287
scalar RSUExampleScenario.node[140].veinsmobility 	totalCO2Emission 	770.45470511365
scalar RSUExampleScenario.node[141].veinsmobility 	startTime 	423.1
scalar RSUExampleScenario.node[141].veinsmobility 	totalTime 	347.4
scalar RSUExampleScenario.node[141].veinsmobility 	stopTime 	770.6
scalar RSUExampleScenario.node[141].veinsmobility 	minSpeed 	0.24969500378752
scalar RSUExampleScenario.node[141].veinsmobility 	maxSpeed 	13.999984004763
scalar RSUExampleScenario.node[141].veinsmobility 	totalDistance 	3409.5632194811
scalar RSUExampleScenario.node[141].veinsmobility 	totalCO2Emission 	767.04956961872
scalar RSUExampleScenario.node[142].veinsmobility 	startTime 	426.1
scalar RSUExampleScenario.node[142].veinsmobility 	totalTime 	348.1
scalar RSUExampleScenario.node[142].veinsmobility 	stopTime 	774.3
scalar RSUExampleScenario.node[142].veinsmobility 	minSpeed 	0.25491434316034
scalar RSUExampleScenario.node[142].veinsmobility 	maxSpeed 	13.999911446958
scalar RSUExampleScenario.node[142].veinsmobility 	totalDistance 	3414.1155007595
scalar RSUExampleScenario.node[142].veinsmobility 	totalCO2Emission 	771.10298020108
scalar RSUExampleScenario.node[143].veinsmobility 	startTime 	429.1
scalar RSUExampleScenario.node[143].veinsmobility 	totalTime 	348.8
scalar RSUExampleScenario.node[143].veinsmobility 	stopTime 	778
scalar RSUExampleScenario.node[143].veinsmobility 	minSpeed 	0.24922692181775
scalar RSUExampleScenario.node[143].veinsmobility 	maxSpeed 	13.99988451381
scalar RSUExampleScenario.node[143].veinsmobility 	totalDistance 	3410.1020158233
scalar RSUExampleScenario.node[143].veinsmobility 	totalCO2Emission 	773.38847763891
scalar RSUExampleScenario.node[144].veinsmobility 	startTime 	432.1
scalar RSUExampleScenario.node[144].veinsmobility 	totalTime 	349.6
scalar RSUExampleScenario.node[144].veinsmobility 	stopTime 	781.8
scalar RSUExampleScenario.node[144].veinsmobility 	minSpeed 	0.24740543212881
scalar RSUExampleScenario.node[144].veinsmobility 	maxSpeed 	13.999747386375
scalar RSUExampleScenario.node[144].veinsmobility 	totalDistance 	3414.3923967722
scalar RSUExampleScenario.node[144].veinsmobility 	totalCO2Emission 	772.97403832397
scalar RSUExampleScenario.node[145].veinsmobility 	startTime 	435.1
scalar RSUExampleScenario.node[145].veinsmobility 	totalTime 	350.3
scalar RSUExampleScenario.node[145].veinsmobility 	stopTime 	785.5
scalar RSUExampleScenario.node[145].veinsmobility 	minSpeed 	0.25113740925817
scalar RSUExampleScenario.node[145].veinsmobility 	maxSpeed 	13.999948189172
scalar RSUExampleScenario.node[145].veinsmobility 	totalDistance 	3410.0234789382
scalar RSUExampleScenario.node[145].veinsmobility 	totalCO2Emission 	772.56965704352
scalar RSUExampleScenario.node[146].veinsmobility 	startTime 	438.1
scalar RSUExampleScenario.node[146].veinsmobility 	totalTime 	350.9
scalar RSUExampleScenario.node[146].veinsmobility 	stopTime 	789.1
scalar RSUExampleScenario.node[146].veinsmobility 	minSpeed 	0.25062572049792
scalar RSUExampleScenario.node[146].veinsmobility 	maxSpeed 	13.9999196698
scalar RSUExampleScenario.node[146].veinsmobility 	totalDistance 	3413.6381764577
scalar RSUExampleScenario.node[146].veinsmobility 	totalCO2Emission 	774.87656226102
scalar RSUExampleScenario.node[147].veinsmobility 	startTime 	441.1
scalar RSUExampleScenario.node[147].veinsmobility 	totalTime 	351.6
scalar RSUExampleScenario.node[147].veinsmobility 	stopTime 	792.8
scalar RSUExampleScenario.node[147].veinsmobility 	minSpeed 	0.25706474758498
scalar RSUExampleScenario.node[147].veinsmobility 	maxSpeed 	13.99989973004
scalar RSUExampleScenario.node[147].veinsmobility 	totalDistance 	3409.7311777193
scalar RSUExampleScenario.node[147].veinsmobility 	totalCO2Emission 	775.42155470864
scalar RSUExampleScenario.node[148].veinsmobility 	startTime 	444.1
scalar RSUExampleScenario.node[148].veinsmobility 	totalTime 	352.3
scalar RSUExampleScenario.node[148].veinsmobility 	stopTime 	796.5
scalar RSUExampleScenario.node[148].veinsmobility 	minSpeed 	0.25094437737158
scalar RSUExampleScenario.node[148].veinsmobility 	maxSpeed 	13.999871079456
scalar RSUExampleScenario.node[148].veinsmobility 	totalDistance 	3414.3118052573
scalar RSUExampleScenario.node[148].veinsmobility 	totalCO2Emission 	774.4255012335
scalar RSUExampleScenario.node[149].veinsmobility 	startTime 	447.1
scalar RSUExampleScenario.node[149].veinsmobility 	totalTime 	353
scalar RSUExampleScenario.node[149].veinsmobility 	stopTime 	800.2
scalar RSUExampleScenario.node[149].veinsmobility 	minSpeed 	0.25093322621658
scalar RSUExampleScenario.node[149].veinsmobility 	maxSpeed 	13.999933484411
scalar RSUExampleScenario.node[149].veinsmobility 	totalDistance 	3410.0840661386
scalar RSUExampleScenario.node[149].veinsmobility 	totalCO2Emission 	774.14267423194
scalar RSUExampleScenario.node[150].veinsmobility 	startTime 	450.1
scalar RSUExampleScenario.node[150].veinsmobility 	totalTime 	353.7
scalar RSUExampleScenario.node[150].veinsmobility 	stopTime 	803.9
scalar RSUExampleScenario.node[150].veinsmobility 	minSpeed 	0.25379324785783
scalar RSUExampleScenario.node[150].veinsmobility 	maxSpeed 	13.999959440085
scalar RSUExampleScenario.node[150].veinsmobility 	totalDistance 	3414.200744673
scalar RSUExampleScenario.node[150].veinsmobility 	totalCO2Emission 	775.90656990514
scalar RSUExampleScenario.node[151].veinsmobility 	startTime 	453.1
scalar RSUExampleScenario.node[151].veinsmobility 	totalTime 	354.4
scalar RSUExampleScenario.node[151].veinsmobility 	stopTime 	807.6
scalar RSUExampleScenario.node[151].veinsmobility 	minSpeed 	0.25052026366768
scalar RSUExampleScenario.node[151].veinsmobility 	maxSpeed 	13.999954158019
scalar RSUExampleScenario.node[151].veinsmobility 	totalDistance 	3409.7609311944
scalar RSUExampleScenario.node[151].veinsmobility 	totalCO2Emission 	776.58599929397
scalar RSUExampleScenario.node[152].veinsmobility 	startTime 	456.1
scalar RSUExampleScenario.node[152].veinsmobility 	totalTime 	355
scalar RSUExampleScenario.node[152].veinsmobility 	stopTime 	811.2
scalar RSUExampleScenario.node[152].veinsmobility 	minSpeed 	0.24814947855636
scalar RSUExampleScenario.node[152].veinsmobility 	maxSpeed 	13.999932431781
scalar RSUExampleScenario.node[152].veinsmobility 	totalDistance 	3413.9664926766
[...]
scalar RSUExampleScenario.node[628].veinsmobility 	totalCO2Emission 	324.12122165132
scalar RSUExampleScenario.node[629].veinsmobility 	startTime 	1887.1
scalar RSUExampleScenario.node[629].veinsmobility 	totalTime 	112.8
scalar RSUExampleScenario.node[629].veinsmobility 	stopTime 	2000
scalar RSUExampleScenario.node[629].veinsmobility 	minSpeed 	0.25853898088168
scalar RSUExampleScenario.node[629].veinsmobility 	maxSpeed 	13.999930526533
scalar RSUExampleScenario.node[629].veinsmobility 	totalDistance 	1364.3713775567
scalar RSUExampleScenario.node[629].veinsmobility 	totalCO2Emission 	315.39386637211
scalar RSUExampleScenario.node[630].veinsmobility 	startTime 	1890.1
scalar RSUExampleScenario.node[630].veinsmobility 	totalTime 	109.8
scalar RSUExampleScenario.node[630].veinsmobility 	stopTime 	2000
scalar RSUExampleScenario.node[630].veinsmobility 	minSpeed 	0.25058602656773
scalar RSUExampleScenario.node[630].veinsmobility 	maxSpeed 	13.999864793825
scalar RSUExampleScenario.node[630].veinsmobility 	totalDistance 	1320.0404148117
scalar RSUExampleScenario.node[630].veinsmobility 	totalCO2Emission 	310.15705550075
scalar RSUExampleScenario.node[631].veinsmobility 	startTime 	1893.1
scalar RSUExampleScenario.node[631].veinsmobility 	totalTime 	106.8
scalar RSUExampleScenario.node[631].veinsmobility 	stopTime 	2000
scalar RSUExampleScenario.node[631].veinsmobility 	minSpeed 	0.25344065116718
scalar RSUExampleScenario.node[631].veinsmobility 	maxSpeed 	13.999617677289
scalar RSUExampleScenario.node[631].veinsmobility 	totalDistance 	1279.9828089512
scalar RSUExampleScenario.node[631].veinsmobility 	totalCO2Emission 	302.86716233411
scalar RSUExampleScenario.node[632].veinsmobility 	startTime 	1896.1
scalar RSUExampleScenario.node[632].veinsmobility 	totalTime 	103.8
scalar RSUExampleScenario.node[632].veinsmobility 	stopTime 	2000
scalar RSUExampleScenario.node[632].veinsmobility 	minSpeed 	0.25398291319702
scalar RSUExampleScenario.node[632].veinsmobility 	maxSpeed 	13.999621241132
scalar RSUExampleScenario.node[632].veinsmobility 	totalDistance 	1237.9453311912
scalar RSUExampleScenario.node[632].veinsmobility 	totalCO2Emission 	297.22115699921
scalar RSUExampleScenario.node[633].veinsmobility 	startTime 	1899.1
scalar RSUExampleScenario.node[633].veinsmobility 	totalTime 	100.8
scalar RSUExampleScenario.node[633].veinsmobility 	stopTime 	2000
scalar RSUExampleScenario.node[633].veinsmobility 	minSpeed 	0.25648865095573
scalar RSUExampleScenario.node[633].veinsmobility 	maxSpeed 	13.999880281528
scalar RSUExampleScenario.node[633].veinsmobility 	totalDistance 	1195.621102622
scalar RSUExampleScenario.node[633].veinsmobility 	totalCO2Emission 	288.19331093834
scalar RSUExampleScenario.node[634].veinsmobility 	startTime 	1902.1
scalar RSUExampleScenario.node[634].veinsmobility 	totalTime 	97.8
scalar RSUExampleScenario.node[634].veinsmobility 	stopTime 	2000
scalar RSUExampleScenario.node[634].veinsmobility 	minSpeed 	0.24712885774695
scalar RSUExampleScenario.node[634].veinsmobility 	maxSpeed 	13.999492541091
scalar RSUExampleScenario.node[634].veinsmobility 	totalDistance 	1152.7323725354
scalar RSUExampleScenario.node[634].veinsmobility 	totalCO2Emission 	281.55771631934
scalar RSUExampleScenario.node[635].veinsmobility 	startTime 	1905.1
scalar RSUExampleScenario.node[635].veinsmobility 	totalTime 	94.8
scalar RSUExampleScenario.node[635].veinsmobility 	stopTime 	2000
scalar RSUExampleScenario.node[635].veinsmobility 	minSpeed 	0.25176030279323
scalar RSUExampleScenario.node[635].veinsmobility 	maxSpeed 	13.999706379613
scalar RSUExampleScenario.node[635].veinsmobility 	totalDistance 	1112.1593594946
scalar RSUExampleScenario.node[635].veinsmobility 	totalCO2Emission 	273.69960999571
scalar RSUExampleScenario.node[636].veinsmobility 	startTime 	1908.1
scalar RSUExampleScenario.node[636].veinsmobility 	totalTime 	91.8
scalar RSUExampleScenario.node[636].veinsmobility 	stopTime 	2000
scalar RSUExampleScenario.node[636].veinsmobility 	minSpeed 	0.2529711395104
scalar RSUExampleScenario.node[636].veinsmobility 	maxSpeed 	13.999915975987
scalar RSUExampleScenario.node[636].veinsmobility 	totalDistance 	1068.8980502386
scalar RSUExampleScenario.node[636].veinsmobility 	totalCO2Emission 	269.2244920805
scalar RSUExampleScenario.node[637].veinsmobility 	startTime 	1911.1
scalar RSUExampleScenario.node[637].veinsmobility 	totalTime 	88.8
scalar RSUExampleScenario.node[637].veinsmobility 	stopTime 	2000
scalar RSUExampleScenario.node[637].veinsmobility 	minSpeed 	0.24947855015378
scalar RSUExampleScenario.node[637].veinsmobility 	maxSpeed 	13.999783578378
scalar RSUExampleScenario.node[637].veinsmobility 	totalDistance 	1028.644468288
scalar RSUExampleScenario.node[637].veinsmobility 	totalCO2Emission 	258.97899537445
scalar RSUExampleScenario.node[638].veinsmobility 	startTime 	1914.1
scalar RSUExampleScenario.node[638].veinsmobility 	totalTime 	85.8
scalar RSUExampleScenario.node[638].veinsmobility 	stopTime 	2000
scalar RSUExampleScenario.node[638].veinsmobility 	minSpeed 	0.25029944720375
scalar RSUExampleScenario.node[638].veinsmobility 	maxSpeed 	13.999920084896
scalar RSUExampleScenario.node[638].veinsmobility 	totalDistance 	985.8416161945
scalar RSUExampleScenario.node[638].veinsmobility 	totalCO2Emission 	253.89504609848
scalar RSUExampleScenario.node[639].veinsmobility 	startTime 	1917.1
scalar RSUExampleScenario.node[639].veinsmobility 	totalTime 	82.8
scalar RSUExampleScenario.node[639].veinsmobility 	stopTime 	2000
scalar RSUExampleScenario.node[639].veinsmobility 	minSpeed 	0.25887276986451
scalar RSUExampleScenario.node[639].veinsmobility 	maxSpeed 	13.999618202348
scalar RSUExampleScenario.node[639].veinsmobility 	totalDistance 	954.11879323589
scalar RSUExampleScenario.node[639].veinsmobility 	totalCO2Emission 	231.15464858001
scalar RSUExampleScenario.node[640].veinsmobility 	startTime 	1920.1
scalar RSUExampleScenario.node[640].veinsmobility 	totalTime 	79.8
scalar RSUExampleScenario.node[640].veinsmobility 	stopTime 	2000
scalar RSUExampleScenario.node[640].veinsmobility 	minSpeed 	0.25518814636301
scalar RSUExampleScenario.node[640].veinsmobility 	maxSpeed 	13.999870447521
scalar RSUExampleScenario.node[640].veinsmobility 	totalDistance 	937.19740596799
scalar RSUExampleScenario.node[640].veinsmobility 	totalCO2Emission 	223.93354789325
scalar RSUExampleScenario.node[641].veinsmobility 	startTime 	1923.1
scalar RSUExampleScenario.node[641].veinsmobility 	totalTime 	76.8
scalar RSUExampleScenario.node[641].veinsmobility 	stopTime 	2000
scalar RSUExampleScenario.node[641].veinsmobility 	minSpeed 	0.2487001066478
scalar RSUExampleScenario.node[641].veinsmobility 	maxSpeed 	13.998988360506
scalar RSUExampleScenario.node[641].veinsmobility 	totalDistance 	912.66266669464
scalar RSUExampleScenario.node[641].veinsmobility 	totalCO2Emission 	217.97414371323
scalar RSUExampleScenario.node[642].veinsmobility 	startTime 	1926.1
scalar RSUExampleScenario.node[642].veinsmobility 	totalTime 	73.8
scalar RSUExampleScenario.node[642].veinsmobility 	stopTime 	2000
scalar RSUExampleScenario.node[642].veinsmobility 	minSpeed 	0.25801681492548
scalar RSUExampleScenario.node[642].veinsmobility 	maxSpeed 	13.998538125309
scalar RSUExampleScenario.node[642].veinsmobility 	totalDistance 	872.52532134956
scalar RSUExampleScenario.node[642].veinsmobility 	totalCO2Emission 	211.53997041246
scalar RSUExampleScenario.node[643].veinsmobility 	startTime 	1929.1
scalar RSUExampleScenario.node[643].veinsmobility 	totalTime 	70.8
scalar RSUExampleScenario.node[643].veinsmobility 	stopTime 	2000
scalar RSUExampleScenario.node[643].veinsmobility 	minSpeed 	0.25066030364274
scalar RSUExampleScenario.node[643].veinsmobility 	maxSpeed 	13.999705274983
scalar RSUExampleScenario.node[643].veinsmobility 	totalDistance 	831.07058693851
scalar RSUExampleScenario.node[643].veinsmobility 	totalCO2Emission 	207.70814549597
scalar RSUExampleScenario.node[644].veinsmobility 	startTime 	1932.1
scalar RSUExampleScenario.node[644].veinsmobility 	totalTime 	67.8
scalar RSUExampleScenario.node[644].veinsmobility 	stopTime 	2000
scalar RSUExampleScenario.node[644].veinsmobility 	minSpeed 	0.24966831502318
scalar RSUExampleScenario.node[644].veinsmobility 	maxSpeed 	13.998184977786
scalar RSUExampleScenario.node[644].veinsmobility 	totalDistance 	788.12678469512
scalar RSUExampleScenario.node[644].veinsmobility 	totalCO2Emission 	198.15131385248
scalar RSUExampleScenario.node[645].veinsmobility 	startTime 	1935.1
scalar RSUExampleScenario.node[645].veinsmobility 	totalTime 	64.8
scalar RSUExampleScenario.node[645].veinsmobility 	stopTime 	2000
scalar RSUExampleScenario.node[645].veinsmobility 	minSpeed 	0.25529123905185
scalar RSUExampleScenario.node[645].veinsmobility 	maxSpeed 	13.999990747895
scalar RSUExampleScenario.node[645].veinsmobility 	totalDistance 	746.07164996107
scalar RSUExampleScenario.node[645].veinsmobility 	totalCO2Emission 	193.81825056815
scalar RSUExampleScenario.node[646].veinsmobility 	startTime 	1938.1
scalar RSUExampleScenario.node[646].veinsmobility 	totalTime 	61.8
scalar RSUExampleScenario.node[646].veinsmobility 	stopTime 	2000
scalar RSUExampleScenario.node[646].veinsmobility 	minSpeed 	0.25002651204751
scalar RSUExampleScenario.node[646].veinsmobility 	maxSpeed 	13.999786649428
scalar RSUExampleScenario.node[646].veinsmobility 	totalDistance 	706.97796893797
scalar RSUExampleScenario.node[646].veinsmobility 	totalCO2Emission 	187.19338986738
scalar RSUExampleScenario.node[647].veinsmobility 	startTime 	1941.1
scalar RSUExampleScenario.node[647].veinsmobility 	totalTime 	58.8
scalar RSUExampleScenario.node[647].veinsmobility 	stopTime 	2000
scalar RSUExampleScenario.node[647].veinsmobility 	minSpeed 	0.25124946354027
scalar RSUExampleScenario.node[647].veinsmobility 	maxSpeed 	13.999971770383
scalar RSUExampleScenario.node[647].veinsmobility 	totalDistance 	665.37402239256
scalar RSUExampleScenario.node[647].veinsmobility 	totalCO2Emission 	178.37141582376
scalar RSUExampleScenario.node[648].veinsmobility 	startTime 	1944.1
scalar RSUExampleScenario.node[648].veinsmobility 	totalTime 	55.8
scalar RSUExampleScenario.node[648].veinsmobility 	stopTime 	2000
scalar RSUExampleScenario.node[648].veinsmobility 	minSpeed 	0.25783258383046
scalar RSUExampleScenario.node[648].veinsmobility 	maxSpeed 	13.998601853973
scalar RSUExampleScenario.node[648].veinsmobility 	totalDistance 	620.80565764565
scalar RSUExampleScenario.node[648].veinsmobility 	totalCO2Emission 	170.70531308372
scalar RSUExampleScenario.node[649].veinsmobility 	startTime 	1947.1
scalar RSUExampleScenario.node[649].veinsmobility 	totalTime 	52.8
scalar RSUExampleScenario.node[649].veinsmobility 	stopTime 	2000
scalar RSUExampleScenario.node[649].veinsmobility 	minSpeed 	0.25467188760941
scalar RSUExampleScenario.node[649].veinsmobility 	maxSpeed 	13.998447186605
scalar RSUExampleScenario.node[649].veinsmobility 	totalDistance 	579.04591367335
scalar RSUExampleScenario.node[649].veinsmobility 	totalCO2Emission 	163.37134856472
scalar RSUExampleScenario.node[650].veinsmobility 	startTime 	1950.1
scalar RSUExampleScenario.node[650].veinsmobility 	totalTime 	49.8
scalar RSUExampleScenario.node[650].veinsmobility 	stopTime 	2000
scalar RSUExampleScenario.node[650].veinsmobility 	minSpeed 	0.24792283624713
scalar RSUExampleScenario.node[650].veinsmobility 	maxSpeed 	13.99965479634
scalar RSUExampleScenario.node[650].veinsmobility 	totalDistance 	537.76609842832
scalar RSUExampleScenario.node[650].veinsmobility 	totalCO2Emission 	157.88781629776
scalar RSUExampleScenario.node[651].veinsmobility 	startTime 	1953.1
scalar RSUExampleScenario.node[651].veinsmobility 	totalTime 	46.8
scalar RSUExampleScenario.node[651].veinsmobility 	stopTime 	2000
scalar RSUExampleScenario.node[651].veinsmobility 	minSpeed 	0.25118783235922
scalar RSUExampleScenario.node[651].veinsmobility 	maxSpeed 	13.998808116147
scalar RSUExampleScenario.node[651].veinsmobility 	totalDistance 	495.90373073906
scalar RSUExampleScenario.node[651].veinsmobility 	totalCO2Emission 	150.96601737075
scalar RSUExampleScenario.node[652].veinsmobility 	startTime 	1956.1
scalar RSUExampleScenario.node[652].veinsmobility 	totalTime 	43.8
scalar RSUExampleScenario.node[652].veinsmobility 	stopTime 	2000
scalar RSUExampleScenario.node[652].veinsmobility 	minSpeed 	0.254214281864
scalar RSUExampleScenario.node[652].veinsmobility 	maxSpeed 	13.999915097337
scalar RSUExampleScenario.node[652].veinsmobility 	totalDistance 	454.25732243057
scalar RSUExampleScenario.node[652].veinsmobility 	totalCO2Emission 	143.11777015831
scalar RSUExampleScenario.node[653].veinsmobility 	startTime 	1959.1
scalar RSUExampleScenario.node[653].veinsmobility 	totalTime 	40.8
scalar RSUExampleScenario.node[653].veinsmobility 	stopTime 	2000
scalar RSUExampleScenario.node[653].veinsmobility 	minSpeed 	0.25405896792887
scalar RSUExampleScenario.node[653].veinsmobility 	maxSpeed 	13.99920123793
scalar RSUExampleScenario.node[653].veinsmobility 	totalDistance 	414.1939631507
scalar RSUExampleScenario.node[653].veinsmobility 	totalCO2Emission 	136.2985520851
scalar RSUExampleScenario.node[654].veinsmobility 	startTime 	1962.1
scalar RSUExampleScenario.node[654].veinsmobility 	totalTime 	37.8
scalar RSUExampleScenario.node[654].veinsmobility 	stopTime 	2000
scalar RSUExampleScenario.node[654].veinsmobility 	minSpeed 	0.25668352090498
scalar RSUExampleScenario.node[654].veinsmobility 	maxSpeed 	13.999737867578
scalar RSUExampleScenario.node[654].veinsmobility 	totalDistance 	373.03089475897
scalar RSUExampleScenario.node[654].veinsmobility 	totalCO2Emission 	129.87370180108
scalar RSUExampleScenario.node[655].veinsmobility 	startTime 	1965.1
scalar RSUExampleScenario.node[655].veinsmobility 	totalTime 	34.8
scalar RSUExampleScenario.node[655].veinsmobility 	stopTime 	2000
scalar RSUExampleScenario.node[655].veinsmobility 	minSpeed 	0.25785240513436
scalar RSUExampleScenario.node[655].veinsmobility 	maxSpeed 	13.99934026235
scalar RSUExampleScenario.node[655].veinsmobility 	totalDistance 	332.05963765005
scalar RSUExampleScenario.node[655].veinsmobility 	totalCO2Emission 	122.00908852305
scalar RSUExampleScenario.node[656].veinsmobility 	startTime 	1968.1
scalar RSUExampleScenario.node[656].veinsmobility 	totalTime 	31.8
scalar RSUExampleScenario.node[656].veinsmobility 	stopTime 	2000
scalar RSUExampleScenario.node[656].veinsmobility 	minSpeed 	0.25245371794258
scalar RSUExampleScenario.node[656].veinsmobility 	maxSpeed 	13.986732059957
scalar RSUExampleScenario.node[656].veinsmobility 	totalDistance 	288.99271534257
scalar RSUExampleScenario.node[656].veinsmobility 	totalCO2Emission 	115.32185500243
scalar RSUExampleScenario.node[657].veinsmobility 	startTime 	1971.1
scalar RSUExampleScenario.node[657].veinsmobility 	totalTime 	28.8
scalar RSUExampleScenario.node[657].veinsmobility 	stopTime 	2000
scalar RSUExampleScenario.node[657].veinsmobility 	minSpeed 	0.25453254242078
scalar RSUExampleScenario.node[657].veinsmobility 	maxSpeed 	13.885100937667
scalar RSUExampleScenario.node[657].veinsmobility 	totalDistance 	250.50026462297
scalar RSUExampleScenario.node[657].veinsmobility 	totalCO2Emission 	100.62534488258
scalar RSUExampleScenario.node[658].veinsmobility 	startTime 	1974.1
scalar RSUExampleScenario.node[658].veinsmobility 	totalTime 	25.8
scalar RSUExampleScenario.node[658].veinsmobility 	stopTime 	2000
scalar RSUExampleScenario.node[658].veinsmobility 	minSpeed 	0.24848264084058
scalar RSUExampleScenario.node[658].veinsmobility 	maxSpeed 	13.886038989699
scalar RSUExampleScenario.node[658].veinsmobility 	totalDistance 	226.44115328305
scalar RSUExampleScenario.node[658].veinsmobility 	totalCO2Emission 	82.988962340515
scalar RSUExampleScenario.node[659].veinsmobility 	startTime 	1977.1
scalar RSUExampleScenario.node[659].veinsmobility 	totalTime 	22.8
scalar RSUExampleScenario.node[659].veinsmobility 	stopTime 	2000
scalar RSUExampleScenario.node[659].veinsmobility 	minSpeed 	0.24976760179759
scalar RSUExampleScenario.node[659].veinsmobility 	maxSpeed 	13.885817224295
scalar RSUExampleScenario.node[659].veinsmobility 	totalDistance 	208.63239094812
scalar RSUExampleScenario.node[659].veinsmobility 	totalCO2Emission 	78.61239625027
scalar RSUExampleScenario.node[660].veinsmobility 	startTime 	1980.1
scalar RSUExampleScenario.node[660].veinsmobility 	totalTime 	19.8
scalar RSUExampleScenario.node[660].veinsmobility 	stopTime 	2000
scalar RSUExampleScenario.node[660].veinsmobility 	minSpeed 	0.25111266716407
scalar RSUExampleScenario.node[660].veinsmobility 	maxSpeed 	13.879587153925
scalar RSUExampleScenario.node[660].veinsmobility 	totalDistance 	173.44881811843
scalar RSUExampleScenario.node[660].veinsmobility 	totalCO2Emission 	75.079821729261
scalar RSUExampleScenario.node[661].veinsmobility 	startTime 	1983.1
scalar RSUExampleScenario.node[661].veinsmobility 	totalTime 	16.8
scalar RSUExampleScenario.node[661].veinsmobility 	stopTime 	2000
scalar RSUExampleScenario.node[661].veinsmobility 	minSpeed 	0.24980597689725
scalar RSUExampleScenario.node[661].veinsmobility 	maxSpeed 	13.862108571564
scalar RSUExampleScenario.node[661].veinsmobility 	totalDistance 	138.06456720119
scalar RSUExampleScenario.node[661].veinsmobility 	totalCO2Emission 	58.146991310258
scalar RSUExampleScenario.node[662].veinsmobility 	startTime 	1986.1
scalar RSUExampleScenario.node[662].veinsmobility 	totalTime 	13.8
scalar RSUExampleScenario.node[662].veinsmobility 	stopTime 	2000
scalar RSUExampleScenario.node[662].veinsmobility 	minSpeed 	0.25314769941801
scalar RSUExampleScenario.node[662].veinsmobility 	maxSpeed 	13.880155749773
scalar RSUExampleScenario.node[662].veinsmobility 	totalDistance 	116.59036715656
scalar RSUExampleScenario.node[662].veinsmobility 	totalCO2Emission 	42.985238250362
scalar RSUExampleScenario.node[663].veinsmobility 	startTime 	1989.1
scalar RSUExampleScenario.node[663].veinsmobility 	totalTime 	10.8
scalar RSUExampleScenario.node[663].veinsmobility 	stopTime 	2000
scalar RSUExampleScenario.node[663].veinsmobility 	minSpeed 	0.25841637112759
scalar RSUExampleScenario.node[663].veinsmobility 	maxSpeed 	13.882737288242
scalar RSUExampleScenario.node[663].veinsmobility 	totalDistance 	97.954372855969
scalar RSUExampleScenario.node[663].veinsmobility 	totalCO2Emission 	39.198313848821
scalar RSUExampleScenario.node[664].veinsmobility 	startTime 	1992.1
scalar RSUExampleScenario.node[664].veinsmobility 	totalTime 	7.8
scalar RSUExampleScenario.node[664].veinsmobility 	stopTime 	2000
scalar RSUExampleScenario.node[664].veinsmobility 	minSpeed 	0.24986431438895
scalar RSUExampleScenario.node[664].veinsmobility 	maxSpeed 	13.889206531104
scalar RSUExampleScenario.node[664].veinsmobility 	totalDistance 	62.809762234678
scalar RSUExampleScenario.node[664].veinsmobility 	totalCO2Emission 	35.78847596513
scalar RSUExampleScenario.node[665].veinsmobility 	startTime 	1995.1
scalar RSUExampleScenario.node[665].veinsmobility 	totalTime 	4.8
scalar RSUExampleScenario.node[665].veinsmobility 	stopTime 	2000
scalar RSUExampleScenario.node[665].veinsmobility 	minSpeed 	0.25237125547254
scalar RSUExampleScenario.node[665].veinsmobility 	maxSpeed 	9.8485606205072
scalar RSUExampleScenario.node[665].veinsmobility 	totalDistance 	24.964574061749
scalar RSUExampleScenario.node[665].veinsmobility 	totalCO2Emission 	18.459475038573
scalar RSUExampleScenario.node[666].veinsmobility 	startTime 	1998.1
scalar RSUExampleScenario.node[666].veinsmobility 	totalTime 	1.8
scalar RSUExampleScenario.node[666].veinsmobility 	stopTime 	2000
scalar RSUExampleScenario.node[666].veinsmobility 	minSpeed 	0.24806474997383
scalar RSUExampleScenario.node[666].veinsmobility 	maxSpeed 	3.6794464910204
scalar RSUExampleScenario.node[666].veinsmobility 	totalDistance 	3.6716767947958
scalar RSUExampleScenario.node[666].veinsmobility 	totalCO2Emission 	3.7751959752189
