version 2
run statisticLeach-5-20150323-01:18:32-8516
attr c 24
attr configname statisticLeach
attr datetime 20150323-01:18:32
attr experiment statisticLeach
attr inifile omnetpp.ini
attr iterationvars "$p=1/25, $c=24"
attr iterationvars2 "$p=1/25, $c=24, $repetition=5"
attr measurement "$p=1/25, $c=24"
attr network RSUExampleScenario
attr p 1/25
attr processid 8516
attr repetition 5
attr replication #5
attr resultdir results
attr runnumber 5
attr seedset 5

scalar . 	c 	24
scalar RSUExampleScenario.node[0].appl 	meanClusterNodes 	0
scalar RSUExampleScenario.node[0].appl 	meanClusterHeadUtility 	0
scalar RSUExampleScenario.node[0].appl 	NumberofCH 	0
scalar RSUExampleScenario.node[0].appl 	NumberofON 	0.054054054054054
scalar RSUExampleScenario.node[0].appl 	NumberofFN 	0.94594594594595
scalar RSUExampleScenario.node[0].veinsmobility 	startTime 	0.1
scalar RSUExampleScenario.node[0].veinsmobility 	totalTime 	449.9
scalar RSUExampleScenario.node[0].veinsmobility 	stopTime 	450
scalar RSUExampleScenario.node[0].veinsmobility 	minSpeed 	0
scalar RSUExampleScenario.node[0].veinsmobility 	maxSpeed 	13.999814766992
scalar RSUExampleScenario.node[0].veinsmobility 	totalDistance 	3131.2656896749
scalar RSUExampleScenario.node[0].veinsmobility 	totalCO2Emission 	838.75707874806
scalar RSUExampleScenario.node[1].appl 	meanClusterNodes 	0
scalar RSUExampleScenario.node[1].appl 	meanClusterHeadUtility 	0
scalar RSUExampleScenario.node[1].appl 	NumberofCH 	0
scalar RSUExampleScenario.node[1].appl 	NumberofON 	0.081081081081081
scalar RSUExampleScenario.node[1].appl 	NumberofFN 	0.91891891891892
scalar RSUExampleScenario.node[1].veinsmobility 	startTime 	2.5
scalar RSUExampleScenario.node[1].veinsmobility 	totalTime 	447.5
scalar RSUExampleScenario.node[1].veinsmobility 	stopTime 	450
scalar RSUExampleScenario.node[1].veinsmobility 	minSpeed 	0
scalar RSUExampleScenario.node[1].veinsmobility 	maxSpeed 	13.999835474228
scalar RSUExampleScenario.node[1].veinsmobility 	totalDistance 	3079.8195974098
scalar RSUExampleScenario.node[1].veinsmobility 	totalCO2Emission 	828.37055028401
scalar RSUExampleScenario.node[10].appl 	meanClusterNodes 	0
scalar RSUExampleScenario.node[10].appl 	meanClusterHeadUtility 	0
scalar RSUExampleScenario.node[10].appl 	NumberofCH 	0
scalar RSUExampleScenario.node[10].appl 	NumberofON 	0.21621621621622
scalar RSUExampleScenario.node[10].appl 	NumberofFN 	0.78378378378378
scalar RSUExampleScenario.node[10].veinsmobility 	startTime 	24.2
scalar RSUExampleScenario.node[10].veinsmobility 	totalTime 	425.8
scalar RSUExampleScenario.node[10].veinsmobility 	stopTime 	450
scalar RSUExampleScenario.node[10].veinsmobility 	minSpeed 	0
scalar RSUExampleScenario.node[10].veinsmobility 	maxSpeed 	13.999913702135
scalar RSUExampleScenario.node[10].veinsmobility 	totalDistance 	2793.1689288928
scalar RSUExampleScenario.node[10].veinsmobility 	totalCO2Emission 	760.1672730875
scalar RSUExampleScenario.node[11].appl 	meanClusterNodes 	4
scalar RSUExampleScenario.node[11].appl 	meanClusterHeadUtility 	19.737957712684
scalar RSUExampleScenario.node[11].appl 	NumberofCH 	0.054054054054054
scalar RSUExampleScenario.node[11].appl 	NumberofON 	0.21621621621622
scalar RSUExampleScenario.node[11].appl 	NumberofFN 	0.72972972972973
scalar RSUExampleScenario.node[11].veinsmobility 	startTime 	26.6
scalar RSUExampleScenario.node[11].veinsmobility 	totalTime 	423.4
scalar RSUExampleScenario.node[11].veinsmobility 	stopTime 	450
scalar RSUExampleScenario.node[11].veinsmobility 	minSpeed 	0
scalar RSUExampleScenario.node[11].veinsmobility 	maxSpeed 	13.999954208657
scalar RSUExampleScenario.node[11].veinsmobility 	totalDistance 	2755.8551815886
scalar RSUExampleScenario.node[11].veinsmobility 	totalCO2Emission 	754.83896049294
scalar RSUExampleScenario.node[12].appl 	meanClusterNodes 	5.75
scalar RSUExampleScenario.node[12].appl 	meanClusterHeadUtility 	9.142157686986
scalar RSUExampleScenario.node[12].appl 	NumberofCH 	0.10810810810811
scalar RSUExampleScenario.node[12].appl 	NumberofON 	0.43243243243243
scalar RSUExampleScenario.node[12].appl 	NumberofFN 	0.45945945945946
scalar RSUExampleScenario.node[12].veinsmobility 	startTime 	29
scalar RSUExampleScenario.node[12].veinsmobility 	totalTime 	421
scalar RSUExampleScenario.node[12].veinsmobility 	stopTime 	450
scalar RSUExampleScenario.node[12].veinsmobility 	minSpeed 	0
scalar RSUExampleScenario.node[12].veinsmobility 	maxSpeed 	13.99997169432
scalar RSUExampleScenario.node[12].veinsmobility 	totalDistance 	2722.1588485084
scalar RSUExampleScenario.node[12].veinsmobility 	totalCO2Emission 	750.01684937871
scalar RSUExampleScenario.node[13].appl 	meanClusterNodes 	3
scalar RSUExampleScenario.node[13].appl 	meanClusterHeadUtility 	17.619413618732
scalar RSUExampleScenario.node[13].appl 	NumberofCH 	0.054054054054054
scalar RSUExampleScenario.node[13].appl 	NumberofON 	0.48648648648649
scalar RSUExampleScenario.node[13].appl 	NumberofFN 	0.45945945945946
scalar RSUExampleScenario.node[13].veinsmobility 	startTime 	31.4
scalar RSUExampleScenario.node[13].veinsmobility 	totalTime 	418.6
scalar RSUExampleScenario.node[13].veinsmobility 	stopTime 	450
scalar RSUExampleScenario.node[13].veinsmobility 	minSpeed 	0
scalar RSUExampleScenario.node[13].veinsmobility 	maxSpeed 	13.999869827814
scalar RSUExampleScenario.node[13].veinsmobility 	totalDistance 	2681.4917235056
scalar RSUExampleScenario.node[13].veinsmobility 	totalCO2Emission 	743.08030606045
scalar RSUExampleScenario.node[14].appl 	meanClusterNodes 	5
scalar RSUExampleScenario.node[14].appl 	meanClusterHeadUtility 	16.903493917808
scalar RSUExampleScenario.node[14].appl 	NumberofCH 	0.054054054054054
scalar RSUExampleScenario.node[14].appl 	NumberofON 	0.18918918918919
scalar RSUExampleScenario.node[14].appl 	NumberofFN 	0.75675675675676
scalar RSUExampleScenario.node[14].veinsmobility 	startTime 	33.8
scalar RSUExampleScenario.node[14].veinsmobility 	totalTime 	416.2
scalar RSUExampleScenario.node[14].veinsmobility 	stopTime 	450
scalar RSUExampleScenario.node[14].veinsmobility 	minSpeed 	0
scalar RSUExampleScenario.node[14].veinsmobility 	maxSpeed 	13.999826364624
scalar RSUExampleScenario.node[14].veinsmobility 	totalDistance 	2654.7428508785
scalar RSUExampleScenario.node[14].veinsmobility 	totalCO2Emission 	732.80644546819
scalar RSUExampleScenario.node[15].appl 	meanClusterNodes 	0
scalar RSUExampleScenario.node[15].appl 	meanClusterHeadUtility 	0
scalar RSUExampleScenario.node[15].appl 	NumberofCH 	0
scalar RSUExampleScenario.node[15].appl 	NumberofON 	0.35135135135135
scalar RSUExampleScenario.node[15].appl 	NumberofFN 	0.64864864864865
scalar RSUExampleScenario.node[15].veinsmobility 	startTime 	36.2
scalar RSUExampleScenario.node[15].veinsmobility 	totalTime 	413.8
scalar RSUExampleScenario.node[15].veinsmobility 	stopTime 	450
scalar RSUExampleScenario.node[15].veinsmobility 	minSpeed 	0
scalar RSUExampleScenario.node[15].veinsmobility 	maxSpeed 	13.99976482488
scalar RSUExampleScenario.node[15].veinsmobility 	totalDistance 	2614.3544875828
scalar RSUExampleScenario.node[15].veinsmobility 	totalCO2Emission 	731.83503348146
scalar RSUExampleScenario.node[16].appl 	meanClusterNodes 	4.5
scalar RSUExampleScenario.node[16].appl 	meanClusterHeadUtility 	16.959629561097
scalar RSUExampleScenario.node[16].appl 	NumberofCH 	0.054054054054054
scalar RSUExampleScenario.node[16].appl 	NumberofON 	0.45945945945946
scalar RSUExampleScenario.node[16].appl 	NumberofFN 	0.48648648648649
scalar RSUExampleScenario.node[16].veinsmobility 	startTime 	38.6
scalar RSUExampleScenario.node[16].veinsmobility 	totalTime 	411.4
scalar RSUExampleScenario.node[16].veinsmobility 	stopTime 	450
scalar RSUExampleScenario.node[16].veinsmobility 	minSpeed 	0
scalar RSUExampleScenario.node[16].veinsmobility 	maxSpeed 	13.999985563988
scalar RSUExampleScenario.node[16].veinsmobility 	totalDistance 	2584.8774614455
scalar RSUExampleScenario.node[16].veinsmobility 	totalCO2Emission 	724.12740672471
scalar RSUExampleScenario.node[17].appl 	meanClusterNodes 	8
scalar RSUExampleScenario.node[17].appl 	meanClusterHeadUtility 	17.281602083461
scalar RSUExampleScenario.node[17].appl 	NumberofCH 	0.054054054054054
scalar RSUExampleScenario.node[17].appl 	NumberofON 	0.2972972972973
scalar RSUExampleScenario.node[17].appl 	NumberofFN 	0.64864864864865
scalar RSUExampleScenario.node[17].veinsmobility 	startTime 	41
scalar RSUExampleScenario.node[17].veinsmobility 	totalTime 	409
scalar RSUExampleScenario.node[17].veinsmobility 	stopTime 	450
scalar RSUExampleScenario.node[17].veinsmobility 	minSpeed 	0
scalar RSUExampleScenario.node[17].veinsmobility 	maxSpeed 	13.999964582555
scalar RSUExampleScenario.node[17].veinsmobility 	totalDistance 	2538.5470626044
scalar RSUExampleScenario.node[17].veinsmobility 	totalCO2Emission 	715.72991359225
scalar RSUExampleScenario.node[18].appl 	meanClusterNodes 	5.5
scalar RSUExampleScenario.node[18].appl 	meanClusterHeadUtility 	17.078254536571
scalar RSUExampleScenario.node[18].appl 	NumberofCH 	0.054054054054054
scalar RSUExampleScenario.node[18].appl 	NumberofON 	0.37837837837838
scalar RSUExampleScenario.node[18].appl 	NumberofFN 	0.56756756756757
scalar RSUExampleScenario.node[18].veinsmobility 	startTime 	43.4
scalar RSUExampleScenario.node[18].veinsmobility 	totalTime 	406.6
scalar RSUExampleScenario.node[18].veinsmobility 	stopTime 	450
scalar RSUExampleScenario.node[18].veinsmobility 	minSpeed 	0
scalar RSUExampleScenario.node[18].veinsmobility 	maxSpeed 	13.999976220988
scalar RSUExampleScenario.node[18].veinsmobility 	totalDistance 	2508.6328444286
scalar RSUExampleScenario.node[18].veinsmobility 	totalCO2Emission 	712.10011077064
scalar RSUExampleScenario.node[19].appl 	meanClusterNodes 	0
scalar RSUExampleScenario.node[19].appl 	meanClusterHeadUtility 	0
scalar RSUExampleScenario.node[19].appl 	NumberofCH 	0.054054054054054
scalar RSUExampleScenario.node[19].appl 	NumberofON 	0.32432432432432
scalar RSUExampleScenario.node[19].appl 	NumberofFN 	0.62162162162162
scalar RSUExampleScenario.node[19].veinsmobility 	startTime 	45.8
scalar RSUExampleScenario.node[19].veinsmobility 	totalTime 	404.2
scalar RSUExampleScenario.node[19].veinsmobility 	stopTime 	450
scalar RSUExampleScenario.node[19].veinsmobility 	minSpeed 	0
scalar RSUExampleScenario.node[19].veinsmobility 	maxSpeed 	13.999976030027
scalar RSUExampleScenario.node[19].veinsmobility 	totalDistance 	2468.6419869559
scalar RSUExampleScenario.node[19].veinsmobility 	totalCO2Emission 	703.58620550252
scalar RSUExampleScenario.node[2].appl 	meanClusterNodes 	0
scalar RSUExampleScenario.node[2].appl 	meanClusterHeadUtility 	0
scalar RSUExampleScenario.node[2].appl 	NumberofCH 	0
scalar RSUExampleScenario.node[2].appl 	NumberofON 	0.054054054054054
scalar RSUExampleScenario.node[2].appl 	NumberofFN 	0.94594594594595
scalar RSUExampleScenario.node[2].veinsmobility 	startTime 	4.9
scalar RSUExampleScenario.node[2].veinsmobility 	totalTime 	445.1
scalar RSUExampleScenario.node[2].veinsmobility 	stopTime 	450
scalar RSUExampleScenario.node[2].veinsmobility 	minSpeed 	0
scalar RSUExampleScenario.node[2].veinsmobility 	maxSpeed 	13.999896946717
scalar RSUExampleScenario.node[2].veinsmobility 	totalDistance 	3039.0522453932
scalar RSUExampleScenario.node[2].veinsmobility 	totalCO2Emission 	819.43364306023
scalar RSUExampleScenario.node[20].appl 	meanClusterNodes 	7.5
scalar RSUExampleScenario.node[20].appl 	meanClusterHeadUtility 	17.754774443185
scalar RSUExampleScenario.node[20].appl 	NumberofCH 	0.054054054054054
scalar RSUExampleScenario.node[20].appl 	NumberofON 	0.2972972972973
scalar RSUExampleScenario.node[20].appl 	NumberofFN 	0.64864864864865
scalar RSUExampleScenario.node[20].veinsmobility 	startTime 	48.3
scalar RSUExampleScenario.node[20].veinsmobility 	totalTime 	401.7
scalar RSUExampleScenario.node[20].veinsmobility 	stopTime 	450
scalar RSUExampleScenario.node[20].veinsmobility 	minSpeed 	0
scalar RSUExampleScenario.node[20].veinsmobility 	maxSpeed 	13.999947149982
scalar RSUExampleScenario.node[20].veinsmobility 	totalDistance 	2441.0020033608
scalar RSUExampleScenario.node[20].veinsmobility 	totalCO2Emission 	705.52644803308
scalar RSUExampleScenario.node[21].appl 	meanClusterNodes 	11
scalar RSUExampleScenario.node[21].appl 	meanClusterHeadUtility 	17.10451764213
scalar RSUExampleScenario.node[21].appl 	NumberofCH 	0.054054054054054
scalar RSUExampleScenario.node[21].appl 	NumberofON 	0.2972972972973
scalar RSUExampleScenario.node[21].appl 	NumberofFN 	0.64864864864865
scalar RSUExampleScenario.node[21].veinsmobility 	startTime 	50.7
scalar RSUExampleScenario.node[21].veinsmobility 	totalTime 	399.3
scalar RSUExampleScenario.node[21].veinsmobility 	stopTime 	450
scalar RSUExampleScenario.node[21].veinsmobility 	minSpeed 	0
scalar RSUExampleScenario.node[21].veinsmobility 	maxSpeed 	13.999875979146
scalar RSUExampleScenario.node[21].veinsmobility 	totalDistance 	2400.3508293518
scalar RSUExampleScenario.node[21].veinsmobility 	totalCO2Emission 	692.77030554411
scalar RSUExampleScenario.node[22].appl 	meanClusterNodes 	0
scalar RSUExampleScenario.node[22].appl 	meanClusterHeadUtility 	0
scalar RSUExampleScenario.node[22].appl 	NumberofCH 	0
scalar RSUExampleScenario.node[22].appl 	NumberofON 	0.62162162162162
scalar RSUExampleScenario.node[22].appl 	NumberofFN 	0.37837837837838
scalar RSUExampleScenario.node[22].veinsmobility 	startTime 	53.1
scalar RSUExampleScenario.node[22].veinsmobility 	totalTime 	396.9
scalar RSUExampleScenario.node[22].veinsmobility 	stopTime 	450
scalar RSUExampleScenario.node[22].veinsmobility 	minSpeed 	0
scalar RSUExampleScenario.node[22].veinsmobility 	maxSpeed 	13.999983554587
scalar RSUExampleScenario.node[22].veinsmobility 	totalDistance 	2371.6155480758
scalar RSUExampleScenario.node[22].veinsmobility 	totalCO2Emission 	688.58377924752
scalar RSUExampleScenario.node[23].appl 	meanClusterNodes 	0
scalar RSUExampleScenario.node[23].appl 	meanClusterHeadUtility 	0
scalar RSUExampleScenario.node[23].appl 	NumberofCH 	0
scalar RSUExampleScenario.node[23].appl 	NumberofON 	0.18918918918919
scalar RSUExampleScenario.node[23].appl 	NumberofFN 	0.81081081081081
scalar RSUExampleScenario.node[23].veinsmobility 	startTime 	55.5
scalar RSUExampleScenario.node[23].veinsmobility 	totalTime 	394.5
scalar RSUExampleScenario.node[23].veinsmobility 	stopTime 	450
scalar RSUExampleScenario.node[23].veinsmobility 	minSpeed 	0
scalar RSUExampleScenario.node[23].veinsmobility 	maxSpeed 	13.999893456455
scalar RSUExampleScenario.node[23].veinsmobility 	totalDistance 	2333.5277760706
scalar RSUExampleScenario.node[23].veinsmobility 	totalCO2Emission 	684.40590114234
scalar RSUExampleScenario.node[24].appl 	meanClusterNodes 	7.5
scalar RSUExampleScenario.node[24].appl 	meanClusterHeadUtility 	16.887472000939
scalar RSUExampleScenario.node[24].appl 	NumberofCH 	0.054054054054054
scalar RSUExampleScenario.node[24].appl 	NumberofON 	0.18918918918919
scalar RSUExampleScenario.node[24].appl 	NumberofFN 	0.75675675675676
scalar RSUExampleScenario.node[24].veinsmobility 	startTime 	57.9
scalar RSUExampleScenario.node[24].veinsmobility 	totalTime 	392.1
scalar RSUExampleScenario.node[24].veinsmobility 	stopTime 	450
scalar RSUExampleScenario.node[24].veinsmobility 	minSpeed 	0
scalar RSUExampleScenario.node[24].veinsmobility 	maxSpeed 	13.999834682569
scalar RSUExampleScenario.node[24].veinsmobility 	totalDistance 	2305.6542620832
scalar RSUExampleScenario.node[24].veinsmobility 	totalCO2Emission 	678.98631168059
scalar RSUExampleScenario.node[25].appl 	meanClusterNodes 	5
scalar RSUExampleScenario.node[25].appl 	meanClusterHeadUtility 	16.481572861397
scalar RSUExampleScenario.node[25].appl 	NumberofCH 	0.054054054054054
scalar RSUExampleScenario.node[25].appl 	NumberofON 	0.51351351351351
scalar RSUExampleScenario.node[25].appl 	NumberofFN 	0.43243243243243
scalar RSUExampleScenario.node[25].veinsmobility 	startTime 	60.3
scalar RSUExampleScenario.node[25].veinsmobility 	totalTime 	389.7
scalar RSUExampleScenario.node[25].veinsmobility 	stopTime 	450
scalar RSUExampleScenario.node[25].veinsmobility 	minSpeed 	0
scalar RSUExampleScenario.node[25].veinsmobility 	maxSpeed 	13.99996821108
scalar RSUExampleScenario.node[25].veinsmobility 	totalDistance 	2267.1646850662
scalar RSUExampleScenario.node[25].veinsmobility 	totalCO2Emission 	676.14022471973
scalar RSUExampleScenario.node[26].appl 	meanClusterNodes 	0
scalar RSUExampleScenario.node[26].appl 	meanClusterHeadUtility 	0
scalar RSUExampleScenario.node[26].appl 	NumberofCH 	0.054054054054054
scalar RSUExampleScenario.node[26].appl 	NumberofON 	0.2972972972973
scalar RSUExampleScenario.node[26].appl 	NumberofFN 	0.64864864864865
scalar RSUExampleScenario.node[26].veinsmobility 	startTime 	62.7
scalar RSUExampleScenario.node[26].veinsmobility 	totalTime 	387.3
scalar RSUExampleScenario.node[26].veinsmobility 	stopTime 	450
scalar RSUExampleScenario.node[26].veinsmobility 	minSpeed 	0
scalar RSUExampleScenario.node[26].veinsmobility 	maxSpeed 	13.999985007874
scalar RSUExampleScenario.node[26].veinsmobility 	totalDistance 	2237.3174459978
scalar RSUExampleScenario.node[26].veinsmobility 	totalCO2Emission 	666.9938115758
scalar RSUExampleScenario.node[27].appl 	meanClusterNodes 	5.5
scalar RSUExampleScenario.node[27].appl 	meanClusterHeadUtility 	15.986731095791
scalar RSUExampleScenario.node[27].appl 	NumberofCH 	0.054054054054054
scalar RSUExampleScenario.node[27].appl 	NumberofON 	0.35135135135135
scalar RSUExampleScenario.node[27].appl 	NumberofFN 	0.59459459459459
scalar RSUExampleScenario.node[27].veinsmobility 	startTime 	65.1
scalar RSUExampleScenario.node[27].veinsmobility 	totalTime 	384.9
scalar RSUExampleScenario.node[27].veinsmobility 	stopTime 	450
scalar RSUExampleScenario.node[27].veinsmobility 	minSpeed 	0
scalar RSUExampleScenario.node[27].veinsmobility 	maxSpeed 	13.999954367958
scalar RSUExampleScenario.node[27].veinsmobility 	totalDistance 	2200.6477174045
scalar RSUExampleScenario.node[27].veinsmobility 	totalCO2Emission 	660.11162376004
scalar RSUExampleScenario.node[28].appl 	meanClusterNodes 	0
scalar RSUExampleScenario.node[28].appl 	meanClusterHeadUtility 	0
scalar RSUExampleScenario.node[28].appl 	NumberofCH 	0
scalar RSUExampleScenario.node[28].appl 	NumberofON 	0.45945945945946
scalar RSUExampleScenario.node[28].appl 	NumberofFN 	0.54054054054054
scalar RSUExampleScenario.node[28].veinsmobility 	startTime 	67.5
scalar RSUExampleScenario.node[28].veinsmobility 	totalTime 	382.5
scalar RSUExampleScenario.node[28].veinsmobility 	stopTime 	450
scalar RSUExampleScenario.node[28].veinsmobility 	minSpeed 	0
scalar RSUExampleScenario.node[28].veinsmobility 	maxSpeed 	13.999908025556
scalar RSUExampleScenario.node[28].veinsmobility 	totalDistance 	2168.885030171
scalar RSUExampleScenario.node[28].veinsmobility 	totalCO2Emission 	656.84455497929
scalar RSUExampleScenario.node[29].appl 	meanClusterNodes 	3.5
scalar RSUExampleScenario.node[29].appl 	meanClusterHeadUtility 	15.431546042944
scalar RSUExampleScenario.node[29].appl 	NumberofCH 	0.054054054054054
scalar RSUExampleScenario.node[29].appl 	NumberofON 	0.35135135135135
scalar RSUExampleScenario.node[29].appl 	NumberofFN 	0.59459459459459
scalar RSUExampleScenario.node[29].veinsmobility 	startTime 	69.9
scalar RSUExampleScenario.node[29].veinsmobility 	totalTime 	380.1
scalar RSUExampleScenario.node[29].veinsmobility 	stopTime 	450
scalar RSUExampleScenario.node[29].veinsmobility 	minSpeed 	0
scalar RSUExampleScenario.node[29].veinsmobility 	maxSpeed 	13.999890290061
scalar RSUExampleScenario.node[29].veinsmobility 	totalDistance 	2134.0389292713
scalar RSUExampleScenario.node[29].veinsmobility 	totalCO2Emission 	652.7948184251
scalar RSUExampleScenario.node[3].appl 	meanClusterNodes 	1
scalar RSUExampleScenario.node[3].appl 	meanClusterHeadUtility 	18.700977671094
scalar RSUExampleScenario.node[3].appl 	NumberofCH 	0.054054054054054
scalar RSUExampleScenario.node[3].appl 	NumberofON 	0.081081081081081
scalar RSUExampleScenario.node[3].appl 	NumberofFN 	0.86486486486486
scalar RSUExampleScenario.node[3].veinsmobility 	startTime 	7.3
scalar RSUExampleScenario.node[3].veinsmobility 	totalTime 	442.7
scalar RSUExampleScenario.node[3].veinsmobility 	stopTime 	450
scalar RSUExampleScenario.node[3].veinsmobility 	minSpeed 	0
scalar RSUExampleScenario.node[3].veinsmobility 	maxSpeed 	13.999972086865
scalar RSUExampleScenario.node[3].veinsmobility 	totalDistance 	2992.8655561384
scalar RSUExampleScenario.node[3].veinsmobility 	totalCO2Emission 	812.75958768788
scalar RSUExampleScenario.node[30].appl 	meanClusterNodes 	3.5
scalar RSUExampleScenario.node[30].appl 	meanClusterHeadUtility 	17.490823341541
scalar RSUExampleScenario.node[30].appl 	NumberofCH 	0.054054054054054
scalar RSUExampleScenario.node[30].appl 	NumberofON 	0.48648648648649
scalar RSUExampleScenario.node[30].appl 	NumberofFN 	0.45945945945946
scalar RSUExampleScenario.node[30].veinsmobility 	startTime 	72.4
scalar RSUExampleScenario.node[30].veinsmobility 	totalTime 	377.6
scalar RSUExampleScenario.node[30].veinsmobility 	stopTime 	450
scalar RSUExampleScenario.node[30].veinsmobility 	minSpeed 	0
scalar RSUExampleScenario.node[30].veinsmobility 	maxSpeed 	13.999986918964
scalar RSUExampleScenario.node[30].veinsmobility 	totalDistance 	2101.464692243
scalar RSUExampleScenario.node[30].veinsmobility 	totalCO2Emission 	642.11445704045
scalar RSUExampleScenario.node[31].appl 	meanClusterNodes 	4
scalar RSUExampleScenario.node[31].appl 	meanClusterHeadUtility 	17.802883907155
scalar RSUExampleScenario.node[31].appl 	NumberofCH 	0.054054054054054
scalar RSUExampleScenario.node[31].appl 	NumberofON 	0.54054054054054
scalar RSUExampleScenario.node[31].appl 	NumberofFN 	0.40540540540541
scalar RSUExampleScenario.node[31].veinsmobility 	startTime 	74.8
scalar RSUExampleScenario.node[31].veinsmobility 	totalTime 	375.2
scalar RSUExampleScenario.node[31].veinsmobility 	stopTime 	450
scalar RSUExampleScenario.node[31].veinsmobility 	minSpeed 	0
scalar RSUExampleScenario.node[31].veinsmobility 	maxSpeed 	13.999910222557
scalar RSUExampleScenario.node[31].veinsmobility 	totalDistance 	2067.0832946588
scalar RSUExampleScenario.node[31].veinsmobility 	totalCO2Emission 	642.74040922809
scalar RSUExampleScenario.node[32].appl 	meanClusterNodes 	8.5
scalar RSUExampleScenario.node[32].appl 	meanClusterHeadUtility 	17.739189404084
scalar RSUExampleScenario.node[32].appl 	NumberofCH 	0.054054054054054
scalar RSUExampleScenario.node[32].appl 	NumberofON 	0.35135135135135
scalar RSUExampleScenario.node[32].appl 	NumberofFN 	0.59459459459459
scalar RSUExampleScenario.node[32].veinsmobility 	startTime 	77.2
scalar RSUExampleScenario.node[32].veinsmobility 	totalTime 	372.8
scalar RSUExampleScenario.node[32].veinsmobility 	stopTime 	450
scalar RSUExampleScenario.node[32].veinsmobility 	minSpeed 	0
scalar RSUExampleScenario.node[32].veinsmobility 	maxSpeed 	13.999844590914
scalar RSUExampleScenario.node[32].veinsmobility 	totalDistance 	2033.0345923174
scalar RSUExampleScenario.node[32].veinsmobility 	totalCO2Emission 	634.76682977501
scalar RSUExampleScenario.node[33].appl 	meanClusterNodes 	5
scalar RSUExampleScenario.node[33].appl 	meanClusterHeadUtility 	17.039194027131
scalar RSUExampleScenario.node[33].appl 	NumberofCH 	0.054054054054054
scalar RSUExampleScenario.node[33].appl 	NumberofON 	0.48648648648649
scalar RSUExampleScenario.node[33].appl 	NumberofFN 	0.45945945945946
scalar RSUExampleScenario.node[33].veinsmobility 	startTime 	79.6
scalar RSUExampleScenario.node[33].veinsmobility 	totalTime 	370.4
scalar RSUExampleScenario.node[33].veinsmobility 	stopTime 	450
scalar RSUExampleScenario.node[33].veinsmobility 	minSpeed 	0
scalar RSUExampleScenario.node[33].veinsmobility 	maxSpeed 	13.999617087941
scalar RSUExampleScenario.node[33].veinsmobility 	totalDistance 	1997.8964665965
scalar RSUExampleScenario.node[33].veinsmobility 	totalCO2Emission 	625.65410172455
scalar RSUExampleScenario.node[34].appl 	meanClusterNodes 	2
scalar RSUExampleScenario.node[34].appl 	meanClusterHeadUtility 	18.893708448636
scalar RSUExampleScenario.node[34].appl 	NumberofCH 	0.054054054054054
scalar RSUExampleScenario.node[34].appl 	NumberofON 	0.54054054054054
scalar RSUExampleScenario.node[34].appl 	NumberofFN 	0.40540540540541
scalar RSUExampleScenario.node[34].veinsmobility 	startTime 	82
scalar RSUExampleScenario.node[34].veinsmobility 	totalTime 	368
scalar RSUExampleScenario.node[34].veinsmobility 	stopTime 	450
scalar RSUExampleScenario.node[34].veinsmobility 	minSpeed 	0
scalar RSUExampleScenario.node[34].veinsmobility 	maxSpeed 	13.99966609553
scalar RSUExampleScenario.node[34].veinsmobility 	totalDistance 	1964.6352446051
scalar RSUExampleScenario.node[34].veinsmobility 	totalCO2Emission 	619.60958465758
scalar RSUExampleScenario.node[35].appl 	meanClusterNodes 	8
scalar RSUExampleScenario.node[35].appl 	meanClusterHeadUtility 	33.399539723113
scalar RSUExampleScenario.node[35].appl 	NumberofCH 	0.027027027027027
scalar RSUExampleScenario.node[35].appl 	NumberofON 	0.45945945945946
scalar RSUExampleScenario.node[35].appl 	NumberofFN 	0.51351351351351
scalar RSUExampleScenario.node[35].veinsmobility 	startTime 	84.4
scalar RSUExampleScenario.node[35].veinsmobility 	totalTime 	365.6
scalar RSUExampleScenario.node[35].veinsmobility 	stopTime 	450
scalar RSUExampleScenario.node[35].veinsmobility 	minSpeed 	0
scalar RSUExampleScenario.node[35].veinsmobility 	maxSpeed 	13.999957858068
scalar RSUExampleScenario.node[35].veinsmobility 	totalDistance 	1931.6250633585
scalar RSUExampleScenario.node[35].veinsmobility 	totalCO2Emission 	616.02904779179
scalar RSUExampleScenario.node[36].appl 	meanClusterNodes 	8.5
scalar RSUExampleScenario.node[36].appl 	meanClusterHeadUtility 	17.660539134895
scalar RSUExampleScenario.node[36].appl 	NumberofCH 	0.054054054054054
scalar RSUExampleScenario.node[36].appl 	NumberofON 	0.43243243243243
scalar RSUExampleScenario.node[36].appl 	NumberofFN 	0.51351351351351
scalar RSUExampleScenario.node[36].veinsmobility 	startTime 	86.8
scalar RSUExampleScenario.node[36].veinsmobility 	totalTime 	363.2
scalar RSUExampleScenario.node[36].veinsmobility 	stopTime 	450
scalar RSUExampleScenario.node[36].veinsmobility 	minSpeed 	0
scalar RSUExampleScenario.node[36].veinsmobility 	maxSpeed 	13.999887365508
scalar RSUExampleScenario.node[36].veinsmobility 	totalDistance 	1898.3322958232
scalar RSUExampleScenario.node[36].veinsmobility 	totalCO2Emission 	613.92830760181
scalar RSUExampleScenario.node[37].appl 	meanClusterNodes 	7
scalar RSUExampleScenario.node[37].appl 	meanClusterHeadUtility 	15.185850028249
scalar RSUExampleScenario.node[37].appl 	NumberofCH 	0.054054054054054
scalar RSUExampleScenario.node[37].appl 	NumberofON 	0.59459459459459
scalar RSUExampleScenario.node[37].appl 	NumberofFN 	0.35135135135135
scalar RSUExampleScenario.node[37].veinsmobility 	startTime 	89.2
scalar RSUExampleScenario.node[37].veinsmobility 	totalTime 	360.8
scalar RSUExampleScenario.node[37].veinsmobility 	stopTime 	450
scalar RSUExampleScenario.node[37].veinsmobility 	minSpeed 	0
scalar RSUExampleScenario.node[37].veinsmobility 	maxSpeed 	13.99999156852
scalar RSUExampleScenario.node[37].veinsmobility 	totalDistance 	1864.7521361621
scalar RSUExampleScenario.node[37].veinsmobility 	totalCO2Emission 	604.81142020005
scalar RSUExampleScenario.node[38].appl 	meanClusterNodes 	7.5
scalar RSUExampleScenario.node[38].appl 	meanClusterHeadUtility 	17.611982697811
scalar RSUExampleScenario.node[38].appl 	NumberofCH 	0.054054054054054
scalar RSUExampleScenario.node[38].appl 	NumberofON 	0.2972972972973
scalar RSUExampleScenario.node[38].appl 	NumberofFN 	0.64864864864865
scalar RSUExampleScenario.node[38].veinsmobility 	startTime 	91.6
scalar RSUExampleScenario.node[38].veinsmobility 	totalTime 	358.4
scalar RSUExampleScenario.node[38].veinsmobility 	stopTime 	450
scalar RSUExampleScenario.node[38].veinsmobility 	minSpeed 	0
scalar RSUExampleScenario.node[38].veinsmobility 	maxSpeed 	13.999794547465
scalar RSUExampleScenario.node[38].veinsmobility 	totalDistance 	1830.6281918703
scalar RSUExampleScenario.node[38].veinsmobility 	totalCO2Emission 	599.11262055755
scalar RSUExampleScenario.node[39].appl 	meanClusterNodes 	7.3333333333333
scalar RSUExampleScenario.node[39].appl 	meanClusterHeadUtility 	11.123998432135
scalar RSUExampleScenario.node[39].appl 	NumberofCH 	0.081081081081081
scalar RSUExampleScenario.node[39].appl 	NumberofON 	0.45945945945946
scalar RSUExampleScenario.node[39].appl 	NumberofFN 	0.45945945945946
scalar RSUExampleScenario.node[39].veinsmobility 	startTime 	94
scalar RSUExampleScenario.node[39].veinsmobility 	totalTime 	356
scalar RSUExampleScenario.node[39].veinsmobility 	stopTime 	450
scalar RSUExampleScenario.node[39].veinsmobility 	minSpeed 	0
scalar RSUExampleScenario.node[39].veinsmobility 	maxSpeed 	13.999907331814
scalar RSUExampleScenario.node[39].veinsmobility 	totalDistance 	1797.8417311023
scalar RSUExampleScenario.node[39].veinsmobility 	totalCO2Emission 	593.7140525615
scalar RSUExampleScenario.node[4].appl 	meanClusterNodes 	2
scalar RSUExampleScenario.node[4].appl 	meanClusterHeadUtility 	15.944901585934
scalar RSUExampleScenario.node[4].appl 	NumberofCH 	0.054054054054054
scalar RSUExampleScenario.node[4].appl 	NumberofON 	0.21621621621622
scalar RSUExampleScenario.node[4].appl 	NumberofFN 	0.72972972972973
scalar RSUExampleScenario.node[4].veinsmobility 	startTime 	9.7
scalar RSUExampleScenario.node[4].veinsmobility 	totalTime 	440.3
scalar RSUExampleScenario.node[4].veinsmobility 	stopTime 	450
scalar RSUExampleScenario.node[4].veinsmobility 	minSpeed 	0
scalar RSUExampleScenario.node[4].veinsmobility 	maxSpeed 	13.999927324119
scalar RSUExampleScenario.node[4].veinsmobility 	totalDistance 	2949.6116097357
scalar RSUExampleScenario.node[4].veinsmobility 	totalCO2Emission 	797.36749878891
scalar RSUExampleScenario.node[40].appl 	meanClusterNodes 	6
scalar RSUExampleScenario.node[40].appl 	meanClusterHeadUtility 	18.308799693082
scalar RSUExampleScenario.node[40].appl 	NumberofCH 	0.054054054054054
scalar RSUExampleScenario.node[40].appl 	NumberofON 	0.32432432432432
scalar RSUExampleScenario.node[40].appl 	NumberofFN 	0.62162162162162
scalar RSUExampleScenario.node[40].veinsmobility 	startTime 	96.5
scalar RSUExampleScenario.node[40].veinsmobility 	totalTime 	353.5
scalar RSUExampleScenario.node[40].veinsmobility 	stopTime 	450
scalar RSUExampleScenario.node[40].veinsmobility 	minSpeed 	0
scalar RSUExampleScenario.node[40].veinsmobility 	maxSpeed 	13.999875348271
scalar RSUExampleScenario.node[40].veinsmobility 	totalDistance 	1763.6555326151
scalar RSUExampleScenario.node[40].veinsmobility 	totalCO2Emission 	585.97202051782
scalar RSUExampleScenario.node[41].appl 	meanClusterNodes 	11.5
scalar RSUExampleScenario.node[41].appl 	meanClusterHeadUtility 	16.693689958772
scalar RSUExampleScenario.node[41].appl 	NumberofCH 	0.054054054054054
scalar RSUExampleScenario.node[41].appl 	NumberofON 	0.24324324324324
scalar RSUExampleScenario.node[41].appl 	NumberofFN 	0.7027027027027
scalar RSUExampleScenario.node[41].veinsmobility 	startTime 	98.9
scalar RSUExampleScenario.node[41].veinsmobility 	totalTime 	351.1
scalar RSUExampleScenario.node[41].veinsmobility 	stopTime 	450
scalar RSUExampleScenario.node[41].veinsmobility 	minSpeed 	0
scalar RSUExampleScenario.node[41].veinsmobility 	maxSpeed 	13.999840707895
scalar RSUExampleScenario.node[41].veinsmobility 	totalDistance 	1731.1722493303
scalar RSUExampleScenario.node[41].veinsmobility 	totalCO2Emission 	582.61263074853
scalar RSUExampleScenario.node[42].appl 	meanClusterNodes 	8.5
scalar RSUExampleScenario.node[42].appl 	meanClusterHeadUtility 	16.946834692768
scalar RSUExampleScenario.node[42].appl 	NumberofCH 	0.054054054054054
scalar RSUExampleScenario.node[42].appl 	NumberofON 	0.51351351351351
scalar RSUExampleScenario.node[42].appl 	NumberofFN 	0.43243243243243
scalar RSUExampleScenario.node[42].veinsmobility 	startTime 	101.3
scalar RSUExampleScenario.node[42].veinsmobility 	totalTime 	348.7
scalar RSUExampleScenario.node[42].veinsmobility 	stopTime 	450
scalar RSUExampleScenario.node[42].veinsmobility 	minSpeed 	0
scalar RSUExampleScenario.node[42].veinsmobility 	maxSpeed 	13.99999340167
scalar RSUExampleScenario.node[42].veinsmobility 	totalDistance 	1697.1096621012
scalar RSUExampleScenario.node[42].veinsmobility 	totalCO2Emission 	573.68300248456
scalar RSUExampleScenario.node[43].appl 	meanClusterNodes 	12
scalar RSUExampleScenario.node[43].appl 	meanClusterHeadUtility 	16.707705484719
scalar RSUExampleScenario.node[43].appl 	NumberofCH 	0.054054054054054
scalar RSUExampleScenario.node[43].appl 	NumberofON 	0.2972972972973
scalar RSUExampleScenario.node[43].appl 	NumberofFN 	0.64864864864865
scalar RSUExampleScenario.node[43].veinsmobility 	startTime 	103.7
scalar RSUExampleScenario.node[43].veinsmobility 	totalTime 	346.3
scalar RSUExampleScenario.node[43].veinsmobility 	stopTime 	450
scalar RSUExampleScenario.node[43].veinsmobility 	minSpeed 	0
scalar RSUExampleScenario.node[43].veinsmobility 	maxSpeed 	13.999873349434
scalar RSUExampleScenario.node[43].veinsmobility 	totalDistance 	1664.2061207612
scalar RSUExampleScenario.node[43].veinsmobility 	totalCO2Emission 	569.32862958021
scalar RSUExampleScenario.node[44].appl 	meanClusterNodes 	3
scalar RSUExampleScenario.node[44].appl 	meanClusterHeadUtility 	17.495876756772
scalar RSUExampleScenario.node[44].appl 	NumberofCH 	0.054054054054054
scalar RSUExampleScenario.node[44].appl 	NumberofON 	0.51351351351351
scalar RSUExampleScenario.node[44].appl 	NumberofFN 	0.43243243243243
scalar RSUExampleScenario.node[44].veinsmobility 	startTime 	106.1
scalar RSUExampleScenario.node[44].veinsmobility 	totalTime 	343.9
scalar RSUExampleScenario.node[44].veinsmobility 	stopTime 	450
scalar RSUExampleScenario.node[44].veinsmobility 	minSpeed 	0
scalar RSUExampleScenario.node[44].veinsmobility 	maxSpeed 	13.999611182385
scalar RSUExampleScenario.node[44].veinsmobility 	totalDistance 	1629.5072781204
scalar RSUExampleScenario.node[44].veinsmobility 	totalCO2Emission 	565.11205827786
scalar RSUExampleScenario.node[45].appl 	meanClusterNodes 	0
scalar RSUExampleScenario.node[45].appl 	meanClusterHeadUtility 	0
scalar RSUExampleScenario.node[45].appl 	NumberofCH 	0
scalar RSUExampleScenario.node[45].appl 	NumberofON 	0.62162162162162
scalar RSUExampleScenario.node[45].appl 	NumberofFN 	0.37837837837838
scalar RSUExampleScenario.node[45].veinsmobility 	startTime 	108.5
scalar RSUExampleScenario.node[45].veinsmobility 	totalTime 	341.5
scalar RSUExampleScenario.node[45].veinsmobility 	stopTime 	450
scalar RSUExampleScenario.node[45].veinsmobility 	minSpeed 	0
scalar RSUExampleScenario.node[45].veinsmobility 	maxSpeed 	13.999963118008
scalar RSUExampleScenario.node[45].veinsmobility 	totalDistance 	1595.4561665431
scalar RSUExampleScenario.node[45].veinsmobility 	totalCO2Emission 	559.83026371202
scalar RSUExampleScenario.node[46].appl 	meanClusterNodes 	4
scalar RSUExampleScenario.node[46].appl 	meanClusterHeadUtility 	15.934872050042
scalar RSUExampleScenario.node[46].appl 	NumberofCH 	0.054054054054054
scalar RSUExampleScenario.node[46].appl 	NumberofON 	0.2972972972973
scalar RSUExampleScenario.node[46].appl 	NumberofFN 	0.64864864864865
scalar RSUExampleScenario.node[46].veinsmobility 	startTime 	110.9
scalar RSUExampleScenario.node[46].veinsmobility 	totalTime 	339.1
scalar RSUExampleScenario.node[46].veinsmobility 	stopTime 	450
scalar RSUExampleScenario.node[46].veinsmobility 	minSpeed 	0
scalar RSUExampleScenario.node[46].veinsmobility 	maxSpeed 	13.999799133004
scalar RSUExampleScenario.node[46].veinsmobility 	totalDistance 	1561.2345658455
scalar RSUExampleScenario.node[46].veinsmobility 	totalCO2Emission 	552.30745815061
scalar RSUExampleScenario.node[47].appl 	meanClusterNodes 	0
scalar RSUExampleScenario.node[47].appl 	meanClusterHeadUtility 	0
scalar RSUExampleScenario.node[47].appl 	NumberofCH 	0
scalar RSUExampleScenario.node[47].appl 	NumberofON 	0.54054054054054
scalar RSUExampleScenario.node[47].appl 	NumberofFN 	0.45945945945946
scalar RSUExampleScenario.node[47].veinsmobility 	startTime 	113.3
scalar RSUExampleScenario.node[47].veinsmobility 	totalTime 	336.7
scalar RSUExampleScenario.node[47].veinsmobility 	stopTime 	450
scalar RSUExampleScenario.node[47].veinsmobility 	minSpeed 	0
scalar RSUExampleScenario.node[47].veinsmobility 	maxSpeed 	13.999869599715
scalar RSUExampleScenario.node[47].veinsmobility 	totalDistance 	1527.6876540616
scalar RSUExampleScenario.node[47].veinsmobility 	totalCO2Emission 	546.34117168717
scalar RSUExampleScenario.node[48].appl 	meanClusterNodes 	7
scalar RSUExampleScenario.node[48].appl 	meanClusterHeadUtility 	16.743640702851
scalar RSUExampleScenario.node[48].appl 	NumberofCH 	0.054054054054054
scalar RSUExampleScenario.node[48].appl 	NumberofON 	0.37837837837838
scalar RSUExampleScenario.node[48].appl 	NumberofFN 	0.56756756756757
scalar RSUExampleScenario.node[48].veinsmobility 	startTime 	115.7
scalar RSUExampleScenario.node[48].veinsmobility 	totalTime 	334.3
scalar RSUExampleScenario.node[48].veinsmobility 	stopTime 	450
scalar RSUExampleScenario.node[48].veinsmobility 	minSpeed 	0
scalar RSUExampleScenario.node[48].veinsmobility 	maxSpeed 	13.999610437672
scalar RSUExampleScenario.node[48].veinsmobility 	totalDistance 	1495.358739246
scalar RSUExampleScenario.node[48].veinsmobility 	totalCO2Emission 	542.54590976813
scalar RSUExampleScenario.node[49].appl 	meanClusterNodes 	7
scalar RSUExampleScenario.node[49].appl 	meanClusterHeadUtility 	16.749778550931
scalar RSUExampleScenario.node[49].appl 	NumberofCH 	0.054054054054054
scalar RSUExampleScenario.node[49].appl 	NumberofON 	0.59459459459459
scalar RSUExampleScenario.node[49].appl 	NumberofFN 	0.35135135135135
scalar RSUExampleScenario.node[49].veinsmobility 	startTime 	118.1
scalar RSUExampleScenario.node[49].veinsmobility 	totalTime 	331.9
scalar RSUExampleScenario.node[49].veinsmobility 	stopTime 	450
scalar RSUExampleScenario.node[49].veinsmobility 	minSpeed 	0
scalar RSUExampleScenario.node[49].veinsmobility 	maxSpeed 	13.999983343468
scalar RSUExampleScenario.node[49].veinsmobility 	totalDistance 	1460.6518743807
scalar RSUExampleScenario.node[49].veinsmobility 	totalCO2Emission 	533.11258423875
scalar RSUExampleScenario.node[5].appl 	meanClusterNodes 	0
scalar RSUExampleScenario.node[5].appl 	meanClusterHeadUtility 	0
scalar RSUExampleScenario.node[5].appl 	NumberofCH 	0
scalar RSUExampleScenario.node[5].appl 	NumberofON 	0.081081081081081
scalar RSUExampleScenario.node[5].appl 	NumberofFN 	0.91891891891892
scalar RSUExampleScenario.node[5].veinsmobility 	startTime 	12.1
scalar RSUExampleScenario.node[5].veinsmobility 	totalTime 	437.9
scalar RSUExampleScenario.node[5].veinsmobility 	stopTime 	450
scalar RSUExampleScenario.node[5].veinsmobility 	minSpeed 	0
scalar RSUExampleScenario.node[5].veinsmobility 	maxSpeed 	13.999939466969
scalar RSUExampleScenario.node[5].veinsmobility 	totalDistance 	2913.1333098916
scalar RSUExampleScenario.node[5].veinsmobility 	totalCO2Emission 	781.93446150296
scalar RSUExampleScenario.node[50].appl 	meanClusterNodes 	8.5
scalar RSUExampleScenario.node[50].appl 	meanClusterHeadUtility 	17.519686258234
scalar RSUExampleScenario.node[50].appl 	NumberofCH 	0.054054054054054
scalar RSUExampleScenario.node[50].appl 	NumberofON 	0.43243243243243
scalar RSUExampleScenario.node[50].appl 	NumberofFN 	0.51351351351351
scalar RSUExampleScenario.node[50].veinsmobility 	startTime 	120.6
scalar RSUExampleScenario.node[50].veinsmobility 	totalTime 	329.4
scalar RSUExampleScenario.node[50].veinsmobility 	stopTime 	450
scalar RSUExampleScenario.node[50].veinsmobility 	minSpeed 	0
scalar RSUExampleScenario.node[50].veinsmobility 	maxSpeed 	13.999949778998
scalar RSUExampleScenario.node[50].veinsmobility 	totalDistance 	1425.7911001622
scalar RSUExampleScenario.node[50].veinsmobility 	totalCO2Emission 	530.71230766696
scalar RSUExampleScenario.node[51].appl 	meanClusterNodes 	9.5
scalar RSUExampleScenario.node[51].appl 	meanClusterHeadUtility 	16.165503584781
scalar RSUExampleScenario.node[51].appl 	NumberofCH 	0.054054054054054
scalar RSUExampleScenario.node[51].appl 	NumberofON 	0.51351351351351
scalar RSUExampleScenario.node[51].appl 	NumberofFN 	0.43243243243243
scalar RSUExampleScenario.node[51].veinsmobility 	startTime 	123
scalar RSUExampleScenario.node[51].veinsmobility 	totalTime 	327
scalar RSUExampleScenario.node[51].veinsmobility 	stopTime 	450
scalar RSUExampleScenario.node[51].veinsmobility 	minSpeed 	0
scalar RSUExampleScenario.node[51].veinsmobility 	maxSpeed 	13.99997281472
scalar RSUExampleScenario.node[51].veinsmobility 	totalDistance 	1393.1374215466
scalar RSUExampleScenario.node[51].veinsmobility 	totalCO2Emission 	527.64190931808
scalar RSUExampleScenario.node[52].appl 	meanClusterNodes 	0
scalar RSUExampleScenario.node[52].appl 	meanClusterHeadUtility 	0
scalar RSUExampleScenario.node[52].appl 	NumberofCH 	0
scalar RSUExampleScenario.node[52].appl 	NumberofON 	0.7027027027027
scalar RSUExampleScenario.node[52].appl 	NumberofFN 	0.2972972972973
scalar RSUExampleScenario.node[52].veinsmobility 	startTime 	125.4
scalar RSUExampleScenario.node[52].veinsmobility 	totalTime 	324.6
scalar RSUExampleScenario.node[52].veinsmobility 	stopTime 	450
scalar RSUExampleScenario.node[52].veinsmobility 	minSpeed 	0
scalar RSUExampleScenario.node[52].veinsmobility 	maxSpeed 	13.999999510082
scalar RSUExampleScenario.node[52].veinsmobility 	totalDistance 	1360.3666685024
scalar RSUExampleScenario.node[52].veinsmobility 	totalCO2Emission 	519.78047247888
scalar RSUExampleScenario.node[53].appl 	meanClusterNodes 	9
scalar RSUExampleScenario.node[53].appl 	meanClusterHeadUtility 	16.659639972198
scalar RSUExampleScenario.node[53].appl 	NumberofCH 	0.054054054054054
scalar RSUExampleScenario.node[53].appl 	NumberofON 	0.43243243243243
scalar RSUExampleScenario.node[53].appl 	NumberofFN 	0.51351351351351
scalar RSUExampleScenario.node[53].veinsmobility 	startTime 	127.8
scalar RSUExampleScenario.node[53].veinsmobility 	totalTime 	322.2
scalar RSUExampleScenario.node[53].veinsmobility 	stopTime 	450
scalar RSUExampleScenario.node[53].veinsmobility 	minSpeed 	0
scalar RSUExampleScenario.node[53].veinsmobility 	maxSpeed 	13.999823841061
scalar RSUExampleScenario.node[53].veinsmobility 	totalDistance 	1326.3114569399
scalar RSUExampleScenario.node[53].veinsmobility 	totalCO2Emission 	515.8670529713
scalar RSUExampleScenario.node[54].appl 	meanClusterNodes 	4.5
scalar RSUExampleScenario.node[54].appl 	meanClusterHeadUtility 	17.251951445121
scalar RSUExampleScenario.node[54].appl 	NumberofCH 	0.054054054054054
scalar RSUExampleScenario.node[54].appl 	NumberofON 	0.59459459459459
scalar RSUExampleScenario.node[54].appl 	NumberofFN 	0.35135135135135
scalar RSUExampleScenario.node[54].veinsmobility 	startTime 	130.2
scalar RSUExampleScenario.node[54].veinsmobility 	totalTime 	319.8
scalar RSUExampleScenario.node[54].veinsmobility 	stopTime 	450
scalar RSUExampleScenario.node[54].veinsmobility 	minSpeed 	0
scalar RSUExampleScenario.node[54].veinsmobility 	maxSpeed 	13.999994256711
scalar RSUExampleScenario.node[54].veinsmobility 	totalDistance 	1292.4518197436
scalar RSUExampleScenario.node[54].veinsmobility 	totalCO2Emission 	507.2364784997
scalar RSUExampleScenario.node[55].appl 	meanClusterNodes 	14
scalar RSUExampleScenario.node[55].appl 	meanClusterHeadUtility 	17.011619542082
scalar RSUExampleScenario.node[55].appl 	NumberofCH 	0.054054054054054
scalar RSUExampleScenario.node[55].appl 	NumberofON 	0.27027027027027
scalar RSUExampleScenario.node[55].appl 	NumberofFN 	0.67567567567568
scalar RSUExampleScenario.node[55].veinsmobility 	startTime 	132.6
scalar RSUExampleScenario.node[55].veinsmobility 	totalTime 	317.4
scalar RSUExampleScenario.node[55].veinsmobility 	stopTime 	450
scalar RSUExampleScenario.node[55].veinsmobility 	minSpeed 	0
scalar RSUExampleScenario.node[55].veinsmobility 	maxSpeed 	13.999959042
scalar RSUExampleScenario.node[55].veinsmobility 	totalDistance 	1257.4906059751
scalar RSUExampleScenario.node[55].veinsmobility 	totalCO2Emission 	501.82708043849
scalar RSUExampleScenario.node[56].appl 	meanClusterNodes 	9
scalar RSUExampleScenario.node[56].appl 	meanClusterHeadUtility 	17.11300622008
scalar RSUExampleScenario.node[56].appl 	NumberofCH 	0.054054054054054
scalar RSUExampleScenario.node[56].appl 	NumberofON 	0.43243243243243
scalar RSUExampleScenario.node[56].appl 	NumberofFN 	0.51351351351351
scalar RSUExampleScenario.node[56].veinsmobility 	startTime 	135
scalar RSUExampleScenario.node[56].veinsmobility 	totalTime 	315
scalar RSUExampleScenario.node[56].veinsmobility 	stopTime 	450
scalar RSUExampleScenario.node[56].veinsmobility 	minSpeed 	0
scalar RSUExampleScenario.node[56].veinsmobility 	maxSpeed 	13.99981365646
scalar RSUExampleScenario.node[56].veinsmobility 	totalDistance 	1224.5257701535
scalar RSUExampleScenario.node[56].veinsmobility 	totalCO2Emission 	496.22906913857
scalar RSUExampleScenario.node[57].appl 	meanClusterNodes 	5
scalar RSUExampleScenario.node[57].appl 	meanClusterHeadUtility 	15.996431708109
scalar RSUExampleScenario.node[57].appl 	NumberofCH 	0.054054054054054
scalar RSUExampleScenario.node[57].appl 	NumberofON 	0.54054054054054
scalar RSUExampleScenario.node[57].appl 	NumberofFN 	0.40540540540541
scalar RSUExampleScenario.node[57].veinsmobility 	startTime 	137.4
scalar RSUExampleScenario.node[57].veinsmobility 	totalTime 	312.6
scalar RSUExampleScenario.node[57].veinsmobility 	stopTime 	450
scalar RSUExampleScenario.node[57].veinsmobility 	minSpeed 	0
scalar RSUExampleScenario.node[57].veinsmobility 	maxSpeed 	13.999938631845
scalar RSUExampleScenario.node[57].veinsmobility 	totalDistance 	1191.7789721442
scalar RSUExampleScenario.node[57].veinsmobility 	totalCO2Emission 	490.5415210783
scalar RSUExampleScenario.node[58].appl 	meanClusterNodes 	0
scalar RSUExampleScenario.node[58].appl 	meanClusterHeadUtility 	0
scalar RSUExampleScenario.node[58].appl 	NumberofCH 	0
scalar RSUExampleScenario.node[58].appl 	NumberofON 	0.59459459459459
scalar RSUExampleScenario.node[58].appl 	NumberofFN 	0.40540540540541
scalar RSUExampleScenario.node[58].veinsmobility 	startTime 	139.8
scalar RSUExampleScenario.node[58].veinsmobility 	totalTime 	310.2
scalar RSUExampleScenario.node[58].veinsmobility 	stopTime 	450
scalar RSUExampleScenario.node[58].veinsmobility 	minSpeed 	0
scalar RSUExampleScenario.node[58].veinsmobility 	maxSpeed 	13.999999632456
scalar RSUExampleScenario.node[58].veinsmobility 	totalDistance 	1157.6075390741
scalar RSUExampleScenario.node[58].veinsmobility 	totalCO2Emission 	483.91066989397
scalar RSUExampleScenario.node[59].appl 	meanClusterNodes 	0
scalar RSUExampleScenario.node[59].appl 	meanClusterHeadUtility 	0
scalar RSUExampleScenario.node[59].appl 	NumberofCH 	0
scalar RSUExampleScenario.node[59].appl 	NumberofON 	0.21621621621622
scalar RSUExampleScenario.node[59].appl 	NumberofFN 	0.78378378378378
scalar RSUExampleScenario.node[59].veinsmobility 	startTime 	142.2
scalar RSUExampleScenario.node[59].veinsmobility 	totalTime 	307.8
scalar RSUExampleScenario.node[59].veinsmobility 	stopTime 	450
scalar RSUExampleScenario.node[59].veinsmobility 	minSpeed 	0
scalar RSUExampleScenario.node[59].veinsmobility 	maxSpeed 	13.99964190121
scalar RSUExampleScenario.node[59].veinsmobility 	totalDistance 	1124.1358272192
scalar RSUExampleScenario.node[59].veinsmobility 	totalCO2Emission 	478.3603447802
scalar RSUExampleScenario.node[6].appl 	meanClusterNodes 	0
scalar RSUExampleScenario.node[6].appl 	meanClusterHeadUtility 	0
scalar RSUExampleScenario.node[6].appl 	NumberofCH 	0
scalar RSUExampleScenario.node[6].appl 	NumberofON 	0.13513513513514
scalar RSUExampleScenario.node[6].appl 	NumberofFN 	0.86486486486486
scalar RSUExampleScenario.node[6].veinsmobility 	startTime 	14.5
scalar RSUExampleScenario.node[6].veinsmobility 	totalTime 	435.5
scalar RSUExampleScenario.node[6].veinsmobility 	stopTime 	450
scalar RSUExampleScenario.node[6].veinsmobility 	minSpeed 	0
scalar RSUExampleScenario.node[6].veinsmobility 	maxSpeed 	13.999943496031
scalar RSUExampleScenario.node[6].veinsmobility 	totalDistance 	2904.9498218202
scalar RSUExampleScenario.node[6].veinsmobility 	totalCO2Emission 	778.30544008696
scalar RSUExampleScenario.node[60].appl 	meanClusterNodes 	0
scalar RSUExampleScenario.node[60].appl 	meanClusterHeadUtility 	0
scalar RSUExampleScenario.node[60].appl 	NumberofCH 	0
scalar RSUExampleScenario.node[60].appl 	NumberofON 	0.51351351351351
scalar RSUExampleScenario.node[60].appl 	NumberofFN 	0.48648648648649
scalar RSUExampleScenario.node[60].veinsmobility 	startTime 	144.7
scalar RSUExampleScenario.node[60].veinsmobility 	totalTime 	305.3
scalar RSUExampleScenario.node[60].veinsmobility 	stopTime 	450
scalar RSUExampleScenario.node[60].veinsmobility 	minSpeed 	0
scalar RSUExampleScenario.node[60].veinsmobility 	maxSpeed 	13.999811719793
scalar RSUExampleScenario.node[60].veinsmobility 	totalDistance 	1090.6453119579
scalar RSUExampleScenario.node[60].veinsmobility 	totalCO2Emission 	473.84869060416
scalar RSUExampleScenario.node[61].appl 	meanClusterNodes 	0
scalar RSUExampleScenario.node[61].appl 	meanClusterHeadUtility 	0
scalar RSUExampleScenario.node[61].appl 	NumberofCH 	0
scalar RSUExampleScenario.node[61].appl 	NumberofON 	0.51351351351351
scalar RSUExampleScenario.node[61].appl 	NumberofFN 	0.48648648648649
scalar RSUExampleScenario.node[61].veinsmobility 	startTime 	147.1
scalar RSUExampleScenario.node[61].veinsmobility 	totalTime 	302.9
scalar RSUExampleScenario.node[61].veinsmobility 	stopTime 	450
scalar RSUExampleScenario.node[61].veinsmobility 	minSpeed 	0
scalar RSUExampleScenario.node[61].veinsmobility 	maxSpeed 	13.999897426041
scalar RSUExampleScenario.node[61].veinsmobility 	totalDistance 	1056.961227021
scalar RSUExampleScenario.node[61].veinsmobility 	totalCO2Emission 	467.87710929905
scalar RSUExampleScenario.node[62].appl 	meanClusterNodes 	11.5
scalar RSUExampleScenario.node[62].appl 	meanClusterHeadUtility 	17.676264080255
scalar RSUExampleScenario.node[62].appl 	NumberofCH 	0.054054054054054
scalar RSUExampleScenario.node[62].appl 	NumberofON 	0.43243243243243
scalar RSUExampleScenario.node[62].appl 	NumberofFN 	0.51351351351351
scalar RSUExampleScenario.node[62].veinsmobility 	startTime 	149.5
scalar RSUExampleScenario.node[62].veinsmobility 	totalTime 	300.5
scalar RSUExampleScenario.node[62].veinsmobility 	stopTime 	450
scalar RSUExampleScenario.node[62].veinsmobility 	minSpeed 	0
scalar RSUExampleScenario.node[62].veinsmobility 	maxSpeed 	13.999781170045
scalar RSUExampleScenario.node[62].veinsmobility 	totalDistance 	1023.789065292
scalar RSUExampleScenario.node[62].veinsmobility 	totalCO2Emission 	462.91238427057
scalar RSUExampleScenario.node[63].appl 	meanClusterNodes 	0
scalar RSUExampleScenario.node[63].appl 	meanClusterHeadUtility 	0
scalar RSUExampleScenario.node[63].appl 	NumberofCH 	0
scalar RSUExampleScenario.node[63].appl 	NumberofON 	0.56756756756757
scalar RSUExampleScenario.node[63].appl 	NumberofFN 	0.43243243243243
scalar RSUExampleScenario.node[63].veinsmobility 	startTime 	151.9
scalar RSUExampleScenario.node[63].veinsmobility 	totalTime 	298.1
scalar RSUExampleScenario.node[63].veinsmobility 	stopTime 	450
scalar RSUExampleScenario.node[63].veinsmobility 	minSpeed 	0
scalar RSUExampleScenario.node[63].veinsmobility 	maxSpeed 	13.99988282758
scalar RSUExampleScenario.node[63].veinsmobility 	totalDistance 	983.57783483383
scalar RSUExampleScenario.node[63].veinsmobility 	totalCO2Emission 	448.27891508103
scalar RSUExampleScenario.node[64].appl 	meanClusterNodes 	11
scalar RSUExampleScenario.node[64].appl 	meanClusterHeadUtility 	17.336723256366
scalar RSUExampleScenario.node[64].appl 	NumberofCH 	0.054054054054054
scalar RSUExampleScenario.node[64].appl 	NumberofON 	0.35135135135135
scalar RSUExampleScenario.node[64].appl 	NumberofFN 	0.59459459459459
scalar RSUExampleScenario.node[64].veinsmobility 	startTime 	154.3
scalar RSUExampleScenario.node[64].veinsmobility 	totalTime 	295.7
scalar RSUExampleScenario.node[64].veinsmobility 	stopTime 	450
scalar RSUExampleScenario.node[64].veinsmobility 	minSpeed 	0
scalar RSUExampleScenario.node[64].veinsmobility 	maxSpeed 	13.999700263604
scalar RSUExampleScenario.node[64].veinsmobility 	totalDistance 	953.69715388522
scalar RSUExampleScenario.node[64].veinsmobility 	totalCO2Emission 	436.07429528181
scalar RSUExampleScenario.node[65].appl 	meanClusterNodes 	0
scalar RSUExampleScenario.node[65].appl 	meanClusterHeadUtility 	0
scalar RSUExampleScenario.node[65].appl 	NumberofCH 	0
scalar RSUExampleScenario.node[65].appl 	NumberofON 	0.45945945945946
scalar RSUExampleScenario.node[65].appl 	NumberofFN 	0.54054054054054
scalar RSUExampleScenario.node[65].veinsmobility 	startTime 	156.7
scalar RSUExampleScenario.node[65].veinsmobility 	totalTime 	293.3
scalar RSUExampleScenario.node[65].veinsmobility 	stopTime 	450
scalar RSUExampleScenario.node[65].veinsmobility 	minSpeed 	0
scalar RSUExampleScenario.node[65].veinsmobility 	maxSpeed 	13.999719341362
scalar RSUExampleScenario.node[65].veinsmobility 	totalDistance 	940.28393404971
scalar RSUExampleScenario.node[65].veinsmobility 	totalCO2Emission 	427.27028377621
scalar RSUExampleScenario.node[66].appl 	meanClusterNodes 	7.5
scalar RSUExampleScenario.node[66].appl 	meanClusterHeadUtility 	8.6867906338354
scalar RSUExampleScenario.node[66].appl 	NumberofCH 	0.10810810810811
scalar RSUExampleScenario.node[66].appl 	NumberofON 	0.2972972972973
scalar RSUExampleScenario.node[66].appl 	NumberofFN 	0.59459459459459
scalar RSUExampleScenario.node[66].veinsmobility 	startTime 	159.1
scalar RSUExampleScenario.node[66].veinsmobility 	totalTime 	290.9
scalar RSUExampleScenario.node[66].veinsmobility 	stopTime 	450
scalar RSUExampleScenario.node[66].veinsmobility 	minSpeed 	0
scalar RSUExampleScenario.node[66].veinsmobility 	maxSpeed 	13.999353345595
scalar RSUExampleScenario.node[66].veinsmobility 	totalDistance 	928.24890567741
scalar RSUExampleScenario.node[66].veinsmobility 	totalCO2Emission 	423.48683119498
scalar RSUExampleScenario.node[67].appl 	meanClusterNodes 	9.75
scalar RSUExampleScenario.node[67].appl 	meanClusterHeadUtility 	8.6475180959196
scalar RSUExampleScenario.node[67].appl 	NumberofCH 	0.10810810810811
scalar RSUExampleScenario.node[67].appl 	NumberofON 	0.16216216216216
scalar RSUExampleScenario.node[67].appl 	NumberofFN 	0.72972972972973
scalar RSUExampleScenario.node[67].veinsmobility 	startTime 	161.5
scalar RSUExampleScenario.node[67].veinsmobility 	totalTime 	288.5
scalar RSUExampleScenario.node[67].veinsmobility 	stopTime 	450
scalar RSUExampleScenario.node[67].veinsmobility 	minSpeed 	0
scalar RSUExampleScenario.node[67].veinsmobility 	maxSpeed 	13.99991578433
scalar RSUExampleScenario.node[67].veinsmobility 	totalDistance 	913.19383446281
scalar RSUExampleScenario.node[67].veinsmobility 	totalCO2Emission 	421.73358553336
scalar RSUExampleScenario.node[68].appl 	meanClusterNodes 	0
scalar RSUExampleScenario.node[68].appl 	meanClusterHeadUtility 	0
scalar RSUExampleScenario.node[68].appl 	NumberofCH 	0
scalar RSUExampleScenario.node[68].appl 	NumberofON 	0.21621621621622
scalar RSUExampleScenario.node[68].appl 	NumberofFN 	0.78378378378378
scalar RSUExampleScenario.node[68].veinsmobility 	startTime 	163.9
scalar RSUExampleScenario.node[68].veinsmobility 	totalTime 	286.1
scalar RSUExampleScenario.node[68].veinsmobility 	stopTime 	450
scalar RSUExampleScenario.node[68].veinsmobility 	minSpeed 	0
scalar RSUExampleScenario.node[68].veinsmobility 	maxSpeed 	13.999969671844
scalar RSUExampleScenario.node[68].veinsmobility 	totalDistance 	893.71074170834
scalar RSUExampleScenario.node[68].veinsmobility 	totalCO2Emission 	417.04491393063
scalar RSUExampleScenario.node[69].appl 	meanClusterNodes 	0
scalar RSUExampleScenario.node[69].appl 	meanClusterHeadUtility 	0
scalar RSUExampleScenario.node[69].appl 	NumberofCH 	0
scalar RSUExampleScenario.node[69].appl 	NumberofON 	0.51351351351351
scalar RSUExampleScenario.node[69].appl 	NumberofFN 	0.48648648648649
scalar RSUExampleScenario.node[69].veinsmobility 	startTime 	166.3
scalar RSUExampleScenario.node[69].veinsmobility 	totalTime 	283.7
scalar RSUExampleScenario.node[69].veinsmobility 	stopTime 	450
scalar RSUExampleScenario.node[69].veinsmobility 	minSpeed 	0
scalar RSUExampleScenario.node[69].veinsmobility 	maxSpeed 	13.99998208662
scalar RSUExampleScenario.node[69].veinsmobility 	totalDistance 	859.97460917807
scalar RSUExampleScenario.node[69].veinsmobility 	totalCO2Emission 	412.12869398256
scalar RSUExampleScenario.node[7].appl 	meanClusterNodes 	6
scalar RSUExampleScenario.node[7].appl 	meanClusterHeadUtility 	19.244778415587
scalar RSUExampleScenario.node[7].appl 	NumberofCH 	0.054054054054054
scalar RSUExampleScenario.node[7].appl 	NumberofON 	0.10810810810811
scalar RSUExampleScenario.node[7].appl 	NumberofFN 	0.83783783783784
scalar RSUExampleScenario.node[7].veinsmobility 	startTime 	16.9
scalar RSUExampleScenario.node[7].veinsmobility 	totalTime 	433.1
scalar RSUExampleScenario.node[7].veinsmobility 	stopTime 	450
scalar RSUExampleScenario.node[7].veinsmobility 	minSpeed 	0
scalar RSUExampleScenario.node[7].veinsmobility 	maxSpeed 	13.999962964701
scalar RSUExampleScenario.node[7].veinsmobility 	totalDistance 	2885.0418248648
scalar RSUExampleScenario.node[7].veinsmobility 	totalCO2Emission 	775.18580172741
scalar RSUExampleScenario.node[70].appl 	meanClusterNodes 	0
scalar RSUExampleScenario.node[70].appl 	meanClusterHeadUtility 	0
scalar RSUExampleScenario.node[70].appl 	NumberofCH 	0
scalar RSUExampleScenario.node[70].appl 	NumberofON 	0.54054054054054
scalar RSUExampleScenario.node[70].appl 	NumberofFN 	0.45945945945946
scalar RSUExampleScenario.node[70].veinsmobility 	startTime 	168.8
scalar RSUExampleScenario.node[70].veinsmobility 	totalTime 	281.2
scalar RSUExampleScenario.node[70].veinsmobility 	stopTime 	450
scalar RSUExampleScenario.node[70].veinsmobility 	minSpeed 	0
scalar RSUExampleScenario.node[70].veinsmobility 	maxSpeed 	13.999997814198
scalar RSUExampleScenario.node[70].veinsmobility 	totalDistance 	826.56408461506
scalar RSUExampleScenario.node[70].veinsmobility 	totalCO2Emission 	408.38273389007
scalar RSUExampleScenario.node[71].appl 	meanClusterNodes 	10.5
scalar RSUExampleScenario.node[71].appl 	meanClusterHeadUtility 	17.392804989482
scalar RSUExampleScenario.node[71].appl 	NumberofCH 	0.054054054054054
scalar RSUExampleScenario.node[71].appl 	NumberofON 	0.2972972972973
scalar RSUExampleScenario.node[71].appl 	NumberofFN 	0.64864864864865
scalar RSUExampleScenario.node[71].veinsmobility 	startTime 	171.2
scalar RSUExampleScenario.node[71].veinsmobility 	totalTime 	278.8
scalar RSUExampleScenario.node[71].veinsmobility 	stopTime 	450
scalar RSUExampleScenario.node[71].veinsmobility 	minSpeed 	0
scalar RSUExampleScenario.node[71].veinsmobility 	maxSpeed 	13.999950443259
scalar RSUExampleScenario.node[71].veinsmobility 	totalDistance 	793.75841843886
scalar RSUExampleScenario.node[71].veinsmobility 	totalCO2Emission 	402.17027553666
scalar RSUExampleScenario.node[72].appl 	meanClusterNodes 	4
scalar RSUExampleScenario.node[72].appl 	meanClusterHeadUtility 	20.536341992832
scalar RSUExampleScenario.node[72].appl 	NumberofCH 	0.054054054054054
scalar RSUExampleScenario.node[72].appl 	NumberofON 	0.62162162162162
scalar RSUExampleScenario.node[72].appl 	NumberofFN 	0.32432432432432
scalar RSUExampleScenario.node[72].veinsmobility 	startTime 	173.6
scalar RSUExampleScenario.node[72].veinsmobility 	totalTime 	276.4
scalar RSUExampleScenario.node[72].veinsmobility 	stopTime 	450
scalar RSUExampleScenario.node[72].veinsmobility 	minSpeed 	0
scalar RSUExampleScenario.node[72].veinsmobility 	maxSpeed 	13.99981231574
scalar RSUExampleScenario.node[72].veinsmobility 	totalDistance 	759.51873452312
scalar RSUExampleScenario.node[72].veinsmobility 	totalCO2Emission 	394.80671884341
scalar RSUExampleScenario.node[73].appl 	meanClusterNodes 	0
scalar RSUExampleScenario.node[73].appl 	meanClusterHeadUtility 	0
scalar RSUExampleScenario.node[73].appl 	NumberofCH 	0
scalar RSUExampleScenario.node[73].appl 	NumberofON 	0.64864864864865
scalar RSUExampleScenario.node[73].appl 	NumberofFN 	0.35135135135135
scalar RSUExampleScenario.node[73].veinsmobility 	startTime 	176
scalar RSUExampleScenario.node[73].veinsmobility 	totalTime 	274
scalar RSUExampleScenario.node[73].veinsmobility 	stopTime 	450
scalar RSUExampleScenario.node[73].veinsmobility 	minSpeed 	0
scalar RSUExampleScenario.node[73].veinsmobility 	maxSpeed 	13.999111322737
scalar RSUExampleScenario.node[73].veinsmobility 	totalDistance 	724.76888358633
scalar RSUExampleScenario.node[73].veinsmobility 	totalCO2Emission 	389.75123177338
scalar RSUExampleScenario.node[74].appl 	meanClusterNodes 	3.5
scalar RSUExampleScenario.node[74].appl 	meanClusterHeadUtility 	16.793761104763
scalar RSUExampleScenario.node[74].appl 	NumberofCH 	0.054054054054054
scalar RSUExampleScenario.node[74].appl 	NumberofON 	0.48648648648649
scalar RSUExampleScenario.node[74].appl 	NumberofFN 	0.45945945945946
scalar RSUExampleScenario.node[74].veinsmobility 	startTime 	178.4
scalar RSUExampleScenario.node[74].veinsmobility 	totalTime 	271.6
scalar RSUExampleScenario.node[74].veinsmobility 	stopTime 	450
scalar RSUExampleScenario.node[74].veinsmobility 	minSpeed 	0
scalar RSUExampleScenario.node[74].veinsmobility 	maxSpeed 	13.999183614275
scalar RSUExampleScenario.node[74].veinsmobility 	totalDistance 	690.87829728718
scalar RSUExampleScenario.node[74].veinsmobility 	totalCO2Emission 	384.22123391198
scalar RSUExampleScenario.node[75].appl 	meanClusterNodes 	0
scalar RSUExampleScenario.node[75].appl 	meanClusterHeadUtility 	0
scalar RSUExampleScenario.node[75].appl 	NumberofCH 	0
scalar RSUExampleScenario.node[75].appl 	NumberofON 	0
scalar RSUExampleScenario.node[75].appl 	NumberofFN 	1
scalar RSUExampleScenario.node[75].veinsmobility 	startTime 	180.8
scalar RSUExampleScenario.node[75].veinsmobility 	totalTime 	269.2
scalar RSUExampleScenario.node[75].veinsmobility 	stopTime 	450
scalar RSUExampleScenario.node[75].veinsmobility 	minSpeed 	0
scalar RSUExampleScenario.node[75].veinsmobility 	maxSpeed 	13.999409572249
scalar RSUExampleScenario.node[75].veinsmobility 	totalDistance 	657.60981049509
scalar RSUExampleScenario.node[75].veinsmobility 	totalCO2Emission 	378.31808139745
scalar RSUExampleScenario.node[76].appl 	meanClusterNodes 	6
scalar RSUExampleScenario.node[76].appl 	meanClusterHeadUtility 	18.380542375134
scalar RSUExampleScenario.node[76].appl 	NumberofCH 	0.054054054054054
scalar RSUExampleScenario.node[76].appl 	NumberofON 	0.43243243243243
scalar RSUExampleScenario.node[76].appl 	NumberofFN 	0.51351351351351
scalar RSUExampleScenario.node[76].veinsmobility 	startTime 	183.2
scalar RSUExampleScenario.node[76].veinsmobility 	totalTime 	266.8
scalar RSUExampleScenario.node[76].veinsmobility 	stopTime 	450
scalar RSUExampleScenario.node[76].veinsmobility 	minSpeed 	0
scalar RSUExampleScenario.node[76].veinsmobility 	maxSpeed 	13.99950049367
scalar RSUExampleScenario.node[76].veinsmobility 	totalDistance 	624.98184269165
scalar RSUExampleScenario.node[76].veinsmobility 	totalCO2Emission 	373.26052288103
scalar RSUExampleScenario.node[77].appl 	meanClusterNodes 	4
scalar RSUExampleScenario.node[77].appl 	meanClusterHeadUtility 	18.306285013527
scalar RSUExampleScenario.node[77].appl 	NumberofCH 	0.054054054054054
scalar RSUExampleScenario.node[77].appl 	NumberofON 	0.54054054054054
scalar RSUExampleScenario.node[77].appl 	NumberofFN 	0.40540540540541
scalar RSUExampleScenario.node[77].veinsmobility 	startTime 	185.6
scalar RSUExampleScenario.node[77].veinsmobility 	totalTime 	264.4
scalar RSUExampleScenario.node[77].veinsmobility 	stopTime 	450
scalar RSUExampleScenario.node[77].veinsmobility 	minSpeed 	0
scalar RSUExampleScenario.node[77].veinsmobility 	maxSpeed 	13.997472853309
scalar RSUExampleScenario.node[77].veinsmobility 	totalDistance 	590.94678100512
scalar RSUExampleScenario.node[77].veinsmobility 	totalCO2Emission 	368.26265926072
scalar RSUExampleScenario.node[78].appl 	meanClusterNodes 	3
scalar RSUExampleScenario.node[78].appl 	meanClusterHeadUtility 	17.280732941866
scalar RSUExampleScenario.node[78].appl 	NumberofCH 	0.054054054054054
scalar RSUExampleScenario.node[78].appl 	NumberofON 	0.54054054054054
scalar RSUExampleScenario.node[78].appl 	NumberofFN 	0.40540540540541
scalar RSUExampleScenario.node[78].veinsmobility 	startTime 	188
scalar RSUExampleScenario.node[78].veinsmobility 	totalTime 	262
scalar RSUExampleScenario.node[78].veinsmobility 	stopTime 	450
scalar RSUExampleScenario.node[78].veinsmobility 	minSpeed 	0
scalar RSUExampleScenario.node[78].veinsmobility 	maxSpeed 	13.999385945546
scalar RSUExampleScenario.node[78].veinsmobility 	totalDistance 	556.88953167035
scalar RSUExampleScenario.node[78].veinsmobility 	totalCO2Emission 	362.8869416431
scalar RSUExampleScenario.node[79].appl 	meanClusterNodes 	9.5
scalar RSUExampleScenario.node[79].appl 	meanClusterHeadUtility 	17.917332691705
scalar RSUExampleScenario.node[79].appl 	NumberofCH 	0.054054054054054
scalar RSUExampleScenario.node[79].appl 	NumberofON 	0.2972972972973
scalar RSUExampleScenario.node[79].appl 	NumberofFN 	0.64864864864865
scalar RSUExampleScenario.node[79].veinsmobility 	startTime 	190.4
scalar RSUExampleScenario.node[79].veinsmobility 	totalTime 	259.6
scalar RSUExampleScenario.node[79].veinsmobility 	stopTime 	450
scalar RSUExampleScenario.node[79].veinsmobility 	minSpeed 	0
scalar RSUExampleScenario.node[79].veinsmobility 	maxSpeed 	13.99962143291
scalar RSUExampleScenario.node[79].veinsmobility 	totalDistance 	524.39689870402
scalar RSUExampleScenario.node[79].veinsmobility 	totalCO2Emission 	356.58893246101
scalar RSUExampleScenario.node[8].appl 	meanClusterNodes 	0
scalar RSUExampleScenario.node[8].appl 	meanClusterHeadUtility 	0
scalar RSUExampleScenario.node[8].appl 	NumberofCH 	0
scalar RSUExampleScenario.node[8].appl 	NumberofON 	0.32432432432432
scalar RSUExampleScenario.node[8].appl 	NumberofFN 	0.67567567567568
scalar RSUExampleScenario.node[8].veinsmobility 	startTime 	19.3
scalar RSUExampleScenario.node[8].veinsmobility 	totalTime 	430.7
scalar RSUExampleScenario.node[8].veinsmobility 	stopTime 	450
scalar RSUExampleScenario.node[8].veinsmobility 	minSpeed 	0
scalar RSUExampleScenario.node[8].veinsmobility 	maxSpeed 	13.999893515902
scalar RSUExampleScenario.node[8].veinsmobility 	totalDistance 	2861.4388484891
scalar RSUExampleScenario.node[8].veinsmobility 	totalCO2Emission 	768.42393433683
scalar RSUExampleScenario.node[80].appl 	meanClusterNodes 	8.5
scalar RSUExampleScenario.node[80].appl 	meanClusterHeadUtility 	17.274731296099
scalar RSUExampleScenario.node[80].appl 	NumberofCH 	0.054054054054054
scalar RSUExampleScenario.node[80].appl 	NumberofON 	0.32432432432432
scalar RSUExampleScenario.node[80].appl 	NumberofFN 	0.62162162162162
scalar RSUExampleScenario.node[80].veinsmobility 	startTime 	192.9
scalar RSUExampleScenario.node[80].veinsmobility 	totalTime 	257.1
scalar RSUExampleScenario.node[80].veinsmobility 	stopTime 	450
scalar RSUExampleScenario.node[80].veinsmobility 	minSpeed 	0
scalar RSUExampleScenario.node[80].veinsmobility 	maxSpeed 	13.999495206429
scalar RSUExampleScenario.node[80].veinsmobility 	totalDistance 	490.8843912775
scalar RSUExampleScenario.node[80].veinsmobility 	totalCO2Emission 	352.31838196157
scalar RSUExampleScenario.node[81].appl 	meanClusterNodes 	5
scalar RSUExampleScenario.node[81].appl 	meanClusterHeadUtility 	17.776789728658
scalar RSUExampleScenario.node[81].appl 	NumberofCH 	0.054054054054054
scalar RSUExampleScenario.node[81].appl 	NumberofON 	0.32432432432432
scalar RSUExampleScenario.node[81].appl 	NumberofFN 	0.62162162162162
scalar RSUExampleScenario.node[81].veinsmobility 	startTime 	195.3
scalar RSUExampleScenario.node[81].veinsmobility 	totalTime 	254.7
scalar RSUExampleScenario.node[81].veinsmobility 	stopTime 	450
scalar RSUExampleScenario.node[81].veinsmobility 	minSpeed 	0
scalar RSUExampleScenario.node[81].veinsmobility 	maxSpeed 	13.999186571972
scalar RSUExampleScenario.node[81].veinsmobility 	totalDistance 	456.79971677322
scalar RSUExampleScenario.node[81].veinsmobility 	totalCO2Emission 	345.23217035728
scalar RSUExampleScenario.node[82].appl 	meanClusterNodes 	7
scalar RSUExampleScenario.node[82].appl 	meanClusterHeadUtility 	17.048523407715
scalar RSUExampleScenario.node[82].appl 	NumberofCH 	0.054054054054054
scalar RSUExampleScenario.node[82].appl 	NumberofON 	0.35135135135135
scalar RSUExampleScenario.node[82].appl 	NumberofFN 	0.59459459459459
scalar RSUExampleScenario.node[82].veinsmobility 	startTime 	197.7
scalar RSUExampleScenario.node[82].veinsmobility 	totalTime 	252.3
scalar RSUExampleScenario.node[82].veinsmobility 	stopTime 	450
scalar RSUExampleScenario.node[82].veinsmobility 	minSpeed 	0
scalar RSUExampleScenario.node[82].veinsmobility 	maxSpeed 	13.999970029248
scalar RSUExampleScenario.node[82].veinsmobility 	totalDistance 	422.80081358303
scalar RSUExampleScenario.node[82].veinsmobility 	totalCO2Emission 	339.89531203364
scalar RSUExampleScenario.node[83].appl 	meanClusterNodes 	7.5
scalar RSUExampleScenario.node[83].appl 	meanClusterHeadUtility 	17.511345633116
scalar RSUExampleScenario.node[83].appl 	NumberofCH 	0.054054054054054
scalar RSUExampleScenario.node[83].appl 	NumberofON 	0.2972972972973
scalar RSUExampleScenario.node[83].appl 	NumberofFN 	0.64864864864865
scalar RSUExampleScenario.node[83].veinsmobility 	startTime 	200.1
scalar RSUExampleScenario.node[83].veinsmobility 	totalTime 	249.9
scalar RSUExampleScenario.node[83].veinsmobility 	stopTime 	450
scalar RSUExampleScenario.node[83].veinsmobility 	minSpeed 	0
scalar RSUExampleScenario.node[83].veinsmobility 	maxSpeed 	13.998299910435
scalar RSUExampleScenario.node[83].veinsmobility 	totalDistance 	389.36957956238
scalar RSUExampleScenario.node[83].veinsmobility 	totalCO2Emission 	333.85447523981
scalar RSUExampleScenario.node[84].appl 	meanClusterNodes 	6.5
scalar RSUExampleScenario.node[84].appl 	meanClusterHeadUtility 	16.81064471531
scalar RSUExampleScenario.node[84].appl 	NumberofCH 	0.054054054054054
scalar RSUExampleScenario.node[84].appl 	NumberofON 	0.48648648648649
scalar RSUExampleScenario.node[84].appl 	NumberofFN 	0.45945945945946
scalar RSUExampleScenario.node[84].veinsmobility 	startTime 	202.5
scalar RSUExampleScenario.node[84].veinsmobility 	totalTime 	247.5
scalar RSUExampleScenario.node[84].veinsmobility 	stopTime 	450
scalar RSUExampleScenario.node[84].veinsmobility 	minSpeed 	0
scalar RSUExampleScenario.node[84].veinsmobility 	maxSpeed 	13.998636975186
scalar RSUExampleScenario.node[84].veinsmobility 	totalDistance 	355.91825477072
scalar RSUExampleScenario.node[84].veinsmobility 	totalCO2Emission 	327.58311120299
scalar RSUExampleScenario.node[85].appl 	meanClusterNodes 	11.5
scalar RSUExampleScenario.node[85].appl 	meanClusterHeadUtility 	17.018952622229
scalar RSUExampleScenario.node[85].appl 	NumberofCH 	0.054054054054054
scalar RSUExampleScenario.node[85].appl 	NumberofON 	0.35135135135135
scalar RSUExampleScenario.node[85].appl 	NumberofFN 	0.59459459459459
scalar RSUExampleScenario.node[85].veinsmobility 	startTime 	204.9
scalar RSUExampleScenario.node[85].veinsmobility 	totalTime 	245.1
scalar RSUExampleScenario.node[85].veinsmobility 	stopTime 	450
scalar RSUExampleScenario.node[85].veinsmobility 	minSpeed 	0
scalar RSUExampleScenario.node[85].veinsmobility 	maxSpeed 	13.998875374391
scalar RSUExampleScenario.node[85].veinsmobility 	totalDistance 	323.15609568584
scalar RSUExampleScenario.node[85].veinsmobility 	totalCO2Emission 	322.08555776375
scalar RSUExampleScenario.node[86].appl 	meanClusterNodes 	0
scalar RSUExampleScenario.node[86].appl 	meanClusterHeadUtility 	0
scalar RSUExampleScenario.node[86].appl 	NumberofCH 	0
scalar RSUExampleScenario.node[86].appl 	NumberofON 	0.2972972972973
scalar RSUExampleScenario.node[86].appl 	NumberofFN 	0.7027027027027
scalar RSUExampleScenario.node[86].veinsmobility 	startTime 	207.3
scalar RSUExampleScenario.node[86].veinsmobility 	totalTime 	242.7
scalar RSUExampleScenario.node[86].veinsmobility 	stopTime 	450
scalar RSUExampleScenario.node[86].veinsmobility 	minSpeed 	0
scalar RSUExampleScenario.node[86].veinsmobility 	maxSpeed 	13.871288771802
scalar RSUExampleScenario.node[86].veinsmobility 	totalDistance 	287.1441459339
scalar RSUExampleScenario.node[86].veinsmobility 	totalCO2Emission 	315.03920684106
scalar RSUExampleScenario.node[87].appl 	meanClusterNodes 	0
scalar RSUExampleScenario.node[87].appl 	meanClusterHeadUtility 	0
scalar RSUExampleScenario.node[87].appl 	NumberofCH 	0
scalar RSUExampleScenario.node[87].appl 	NumberofON 	0.40540540540541
scalar RSUExampleScenario.node[87].appl 	NumberofFN 	0.59459459459459
scalar RSUExampleScenario.node[87].veinsmobility 	startTime 	209.7
scalar RSUExampleScenario.node[87].veinsmobility 	totalTime 	240.3
scalar RSUExampleScenario.node[87].veinsmobility 	stopTime 	450
scalar RSUExampleScenario.node[87].veinsmobility 	minSpeed 	0
scalar RSUExampleScenario.node[87].veinsmobility 	maxSpeed 	13.856217193243
scalar RSUExampleScenario.node[87].veinsmobility 	totalDistance 	247.89241025894
scalar RSUExampleScenario.node[87].veinsmobility 	totalCO2Emission 	297.54014338022
scalar RSUExampleScenario.node[88].appl 	meanClusterNodes 	5
scalar RSUExampleScenario.node[88].appl 	meanClusterHeadUtility 	18.029345754565
scalar RSUExampleScenario.node[88].appl 	NumberofCH 	0.054054054054054
scalar RSUExampleScenario.node[88].appl 	NumberofON 	0.43243243243243
scalar RSUExampleScenario.node[88].appl 	NumberofFN 	0.51351351351351
scalar RSUExampleScenario.node[88].veinsmobility 	startTime 	212.1
scalar RSUExampleScenario.node[88].veinsmobility 	totalTime 	237.9
scalar RSUExampleScenario.node[88].veinsmobility 	stopTime 	450
scalar RSUExampleScenario.node[88].veinsmobility 	minSpeed 	0
scalar RSUExampleScenario.node[88].veinsmobility 	maxSpeed 	13.853689584329
scalar RSUExampleScenario.node[88].veinsmobility 	totalDistance 	226.11013686398
scalar RSUExampleScenario.node[88].veinsmobility 	totalCO2Emission 	286.74414875291
scalar RSUExampleScenario.node[89].appl 	meanClusterNodes 	6
scalar RSUExampleScenario.node[89].appl 	meanClusterHeadUtility 	18.030994153728
scalar RSUExampleScenario.node[89].appl 	NumberofCH 	0.054054054054054
scalar RSUExampleScenario.node[89].appl 	NumberofON 	0.27027027027027
scalar RSUExampleScenario.node[89].appl 	NumberofFN 	0.67567567567568
scalar RSUExampleScenario.node[89].veinsmobility 	startTime 	214.5
scalar RSUExampleScenario.node[89].veinsmobility 	totalTime 	235.5
scalar RSUExampleScenario.node[89].veinsmobility 	stopTime 	450
scalar RSUExampleScenario.node[89].veinsmobility 	minSpeed 	0
scalar RSUExampleScenario.node[89].veinsmobility 	maxSpeed 	13.873089794074
scalar RSUExampleScenario.node[89].veinsmobility 	totalDistance 	215.28496235656
scalar RSUExampleScenario.node[89].veinsmobility 	totalCO2Emission 	282.79615278213
scalar RSUExampleScenario.node[9].appl 	meanClusterNodes 	0
scalar RSUExampleScenario.node[9].appl 	meanClusterHeadUtility 	0
scalar RSUExampleScenario.node[9].appl 	NumberofCH 	0
scalar RSUExampleScenario.node[9].appl 	NumberofON 	0.10810810810811
scalar RSUExampleScenario.node[9].appl 	NumberofFN 	0.89189189189189
scalar RSUExampleScenario.node[9].veinsmobility 	startTime 	21.7
scalar RSUExampleScenario.node[9].veinsmobility 	totalTime 	428.3
scalar RSUExampleScenario.node[9].veinsmobility 	stopTime 	450
scalar RSUExampleScenario.node[9].veinsmobility 	minSpeed 	0
scalar RSUExampleScenario.node[9].veinsmobility 	maxSpeed 	13.999991765413
scalar RSUExampleScenario.node[9].veinsmobility 	totalDistance 	2826.6860617313
scalar RSUExampleScenario.node[9].veinsmobility 	totalCO2Emission 	763.14779299722
scalar RSUExampleScenario.node[90].appl 	meanClusterNodes 	0
scalar RSUExampleScenario.node[90].appl 	meanClusterHeadUtility 	0
scalar RSUExampleScenario.node[90].appl 	NumberofCH 	0
scalar RSUExampleScenario.node[90].appl 	NumberofON 	0.35135135135135
scalar RSUExampleScenario.node[90].appl 	NumberofFN 	0.64864864864865
scalar RSUExampleScenario.node[90].veinsmobility 	startTime 	217
scalar RSUExampleScenario.node[90].veinsmobility 	totalTime 	233
scalar RSUExampleScenario.node[90].veinsmobility 	stopTime 	450
scalar RSUExampleScenario.node[90].veinsmobility 	minSpeed 	0
scalar RSUExampleScenario.node[90].veinsmobility 	maxSpeed 	13.859112608947
scalar RSUExampleScenario.node[90].veinsmobility 	totalDistance 	202.24073341921
scalar RSUExampleScenario.node[90].veinsmobility 	totalCO2Emission 	280.22491535468
scalar RSUExampleScenario.node[91].appl 	meanClusterNodes 	13.5
scalar RSUExampleScenario.node[91].appl 	meanClusterHeadUtility 	19.011008176131
scalar RSUExampleScenario.node[91].appl 	NumberofCH 	0.054054054054054
scalar RSUExampleScenario.node[91].appl 	NumberofON 	0.18918918918919
scalar RSUExampleScenario.node[91].appl 	NumberofFN 	0.75675675675676
scalar RSUExampleScenario.node[91].veinsmobility 	startTime 	219.4
scalar RSUExampleScenario.node[91].veinsmobility 	totalTime 	230.6
scalar RSUExampleScenario.node[91].veinsmobility 	stopTime 	450
scalar RSUExampleScenario.node[91].veinsmobility 	minSpeed 	0
scalar RSUExampleScenario.node[91].veinsmobility 	maxSpeed 	13.880335096747
scalar RSUExampleScenario.node[91].veinsmobility 	totalDistance 	185.73026237204
scalar RSUExampleScenario.node[91].veinsmobility 	totalCO2Emission 	278.10415355622
scalar RSUExampleScenario.node[92].appl 	meanClusterNodes 	5
scalar RSUExampleScenario.node[92].appl 	meanClusterHeadUtility 	17.618409371322
scalar RSUExampleScenario.node[92].appl 	NumberofCH 	0.054054054054054
scalar RSUExampleScenario.node[92].appl 	NumberofON 	0.40540540540541
scalar RSUExampleScenario.node[92].appl 	NumberofFN 	0.54054054054054
scalar RSUExampleScenario.node[92].veinsmobility 	startTime 	221.8
scalar RSUExampleScenario.node[92].veinsmobility 	totalTime 	228.2
scalar RSUExampleScenario.node[92].veinsmobility 	stopTime 	450
scalar RSUExampleScenario.node[92].veinsmobility 	minSpeed 	0
scalar RSUExampleScenario.node[92].veinsmobility 	maxSpeed 	13.869893721736
scalar RSUExampleScenario.node[92].veinsmobility 	totalDistance 	150.62283744684
scalar RSUExampleScenario.node[92].veinsmobility 	totalCO2Emission 	263.77882883676
scalar RSUExampleScenario.node[93].appl 	meanClusterNodes 	0
scalar RSUExampleScenario.node[93].appl 	meanClusterHeadUtility 	0
scalar RSUExampleScenario.node[93].appl 	NumberofCH 	0
scalar RSUExampleScenario.node[93].appl 	NumberofON 	0.37837837837838
scalar RSUExampleScenario.node[93].appl 	NumberofFN 	0.62162162162162
scalar RSUExampleScenario.node[93].veinsmobility 	startTime 	224.2
scalar RSUExampleScenario.node[93].veinsmobility 	totalTime 	225.8
scalar RSUExampleScenario.node[93].veinsmobility 	stopTime 	450
scalar RSUExampleScenario.node[93].veinsmobility 	minSpeed 	0
scalar RSUExampleScenario.node[93].veinsmobility 	maxSpeed 	13.672550420959
scalar RSUExampleScenario.node[93].veinsmobility 	totalDistance 	123.58885535561
scalar RSUExampleScenario.node[93].veinsmobility 	totalCO2Emission 	251.31768530259
scalar RSUExampleScenario.node[94].appl 	meanClusterNodes 	6
scalar RSUExampleScenario.node[94].appl 	meanClusterHeadUtility 	17.129623351428
scalar RSUExampleScenario.node[94].appl 	NumberofCH 	0.054054054054054
scalar RSUExampleScenario.node[94].appl 	NumberofON 	0.24324324324324
scalar RSUExampleScenario.node[94].appl 	NumberofFN 	0.7027027027027
scalar RSUExampleScenario.node[94].veinsmobility 	startTime 	226.6
scalar RSUExampleScenario.node[94].veinsmobility 	totalTime 	223.4
scalar RSUExampleScenario.node[94].veinsmobility 	stopTime 	450
scalar RSUExampleScenario.node[94].veinsmobility 	minSpeed 	0
scalar RSUExampleScenario.node[94].veinsmobility 	maxSpeed 	13.801623980787
scalar RSUExampleScenario.node[94].veinsmobility 	totalDistance 	112.19205230007
scalar RSUExampleScenario.node[94].veinsmobility 	totalCO2Emission 	245.82407110645
scalar RSUExampleScenario.node[95].appl 	meanClusterNodes 	10
scalar RSUExampleScenario.node[95].appl 	meanClusterHeadUtility 	19.689516187562
scalar RSUExampleScenario.node[95].appl 	NumberofCH 	0.054054054054054
scalar RSUExampleScenario.node[95].appl 	NumberofON 	0.24324324324324
scalar RSUExampleScenario.node[95].appl 	NumberofFN 	0.7027027027027
scalar RSUExampleScenario.node[95].veinsmobility 	startTime 	229
scalar RSUExampleScenario.node[95].veinsmobility 	totalTime 	221
scalar RSUExampleScenario.node[95].veinsmobility 	stopTime 	450
scalar RSUExampleScenario.node[95].veinsmobility 	minSpeed 	0
scalar RSUExampleScenario.node[95].veinsmobility 	maxSpeed 	13.879688415101
scalar RSUExampleScenario.node[95].veinsmobility 	totalDistance 	99.256676308779
scalar RSUExampleScenario.node[95].veinsmobility 	totalCO2Emission 	242.59082596615
scalar RSUExampleScenario.node[96].appl 	meanClusterNodes 	1
scalar RSUExampleScenario.node[96].appl 	meanClusterHeadUtility 	18.13587329613
scalar RSUExampleScenario.node[96].appl 	NumberofCH 	0.054054054054054
scalar RSUExampleScenario.node[96].appl 	NumberofON 	0.43243243243243
scalar RSUExampleScenario.node[96].appl 	NumberofFN 	0.51351351351351
scalar RSUExampleScenario.node[96].veinsmobility 	startTime 	231.4
scalar RSUExampleScenario.node[96].veinsmobility 	totalTime 	218.6
scalar RSUExampleScenario.node[96].veinsmobility 	stopTime 	450
scalar RSUExampleScenario.node[96].veinsmobility 	minSpeed 	0
scalar RSUExampleScenario.node[96].veinsmobility 	maxSpeed 	13.726060470893
scalar RSUExampleScenario.node[96].veinsmobility 	totalDistance 	83.300127767421
scalar RSUExampleScenario.node[96].veinsmobility 	totalCO2Emission 	239.49985916854
scalar RSUExampleScenario.node[97].appl 	meanClusterNodes 	8.5
scalar RSUExampleScenario.node[97].appl 	meanClusterHeadUtility 	18.867676559386
scalar RSUExampleScenario.node[97].appl 	NumberofCH 	0.054054054054054
scalar RSUExampleScenario.node[97].appl 	NumberofON 	0.35135135135135
scalar RSUExampleScenario.node[97].appl 	NumberofFN 	0.59459459459459
scalar RSUExampleScenario.node[97].veinsmobility 	startTime 	233.8
scalar RSUExampleScenario.node[97].veinsmobility 	totalTime 	216.2
scalar RSUExampleScenario.node[97].veinsmobility 	stopTime 	450
scalar RSUExampleScenario.node[97].veinsmobility 	minSpeed 	0
scalar RSUExampleScenario.node[97].veinsmobility 	maxSpeed 	12.411007497005
scalar RSUExampleScenario.node[97].veinsmobility 	totalDistance 	57.015713633374
scalar RSUExampleScenario.node[97].veinsmobility 	totalCO2Emission 	232.20949957676
scalar RSUExampleScenario.node[98].appl 	meanClusterNodes 	8
scalar RSUExampleScenario.node[98].appl 	meanClusterHeadUtility 	16.422673907261
scalar RSUExampleScenario.node[98].appl 	NumberofCH 	0.054054054054054
scalar RSUExampleScenario.node[98].appl 	NumberofON 	0.37837837837838
scalar RSUExampleScenario.node[98].appl 	NumberofFN 	0.56756756756757
scalar RSUExampleScenario.node[98].veinsmobility 	startTime 	236.2
scalar RSUExampleScenario.node[98].veinsmobility 	totalTime 	213.8
scalar RSUExampleScenario.node[98].veinsmobility 	stopTime 	450
scalar RSUExampleScenario.node[98].veinsmobility 	minSpeed 	0
scalar RSUExampleScenario.node[98].veinsmobility 	maxSpeed 	7.5554583718756
scalar RSUExampleScenario.node[98].veinsmobility 	totalDistance 	21.041381652857
scalar RSUExampleScenario.node[98].veinsmobility 	totalCO2Emission 	216.25586020515
scalar RSUExampleScenario.node[99].appl 	meanClusterNodes 	9.5
scalar RSUExampleScenario.node[99].appl 	meanClusterHeadUtility 	17.941020150371
scalar RSUExampleScenario.node[99].appl 	NumberofCH 	0.054054054054054
scalar RSUExampleScenario.node[99].appl 	NumberofON 	0.21621621621622
scalar RSUExampleScenario.node[99].appl 	NumberofFN 	0.72972972972973
scalar RSUExampleScenario.node[99].veinsmobility 	startTime 	238.6
scalar RSUExampleScenario.node[99].veinsmobility 	totalTime 	211.4
scalar RSUExampleScenario.node[99].veinsmobility 	stopTime 	450
scalar RSUExampleScenario.node[99].veinsmobility 	minSpeed 	0
scalar RSUExampleScenario.node[99].veinsmobility 	maxSpeed 	3.0797756199135
scalar RSUExampleScenario.node[99].veinsmobility 	totalDistance 	3.3354286267737
scalar RSUExampleScenario.node[99].veinsmobility 	totalCO2Emission 	207.10125556852
