version 2
run statisticRVV-153-20150327-08:56:52-6132
attr c 9
attr configname statisticRVV
attr datetime 20150327-08:56:52
attr experiment statisticRVV
attr inifile omnetpp.ini
attr iterationvars "$sc=\"erlangen-medium.launchd.xml\", $p=1/10, $c=9"
attr iterationvars2 "$sc=\"erlangen-medium.launchd.xml\", $p=1/10, $c=9, $repetition=3"
attr measurement "$sc=\"erlangen-medium.launchd.xml\", $p=1/10, $c=9"
attr network RSUExampleScenario
attr p 1/10
attr processid 6132
attr repetition 3
attr replication #3
attr resultdir results
attr runnumber 153
attr sc "\"erlangen-medium.launchd.xml\""
attr seedset 153

scalar . 	c 	9
scalar RSUExampleScenario.node[0].veinsmobility 	startTime 	0.1
scalar RSUExampleScenario.node[0].veinsmobility 	totalTime 	264.4
scalar RSUExampleScenario.node[0].veinsmobility 	stopTime 	264.6
scalar RSUExampleScenario.node[0].veinsmobility 	minSpeed 	0.25807990188454
scalar RSUExampleScenario.node[0].veinsmobility 	maxSpeed 	13.999960165578
scalar RSUExampleScenario.node[0].veinsmobility 	totalDistance 	3409.8541831213
scalar RSUExampleScenario.node[0].veinsmobility 	totalCO2Emission 	692.91217118418
scalar RSUExampleScenario.node[1].veinsmobility 	startTime 	3.1
scalar RSUExampleScenario.node[1].veinsmobility 	totalTime 	265.4
scalar RSUExampleScenario.node[1].veinsmobility 	stopTime 	268.6
scalar RSUExampleScenario.node[1].veinsmobility 	minSpeed 	0.25662758109765
scalar RSUExampleScenario.node[1].veinsmobility 	maxSpeed 	13.999847706489
scalar RSUExampleScenario.node[1].veinsmobility 	totalDistance 	3409.3351804872
scalar RSUExampleScenario.node[1].veinsmobility 	totalCO2Emission 	691.06709160797
scalar RSUExampleScenario.node[2].veinsmobility 	startTime 	6.1
scalar RSUExampleScenario.node[2].veinsmobility 	totalTime 	266
scalar RSUExampleScenario.node[2].veinsmobility 	stopTime 	272.2
scalar RSUExampleScenario.node[2].veinsmobility 	minSpeed 	0.24870739957015
scalar RSUExampleScenario.node[2].veinsmobility 	maxSpeed 	13.999976384011
scalar RSUExampleScenario.node[2].veinsmobility 	totalDistance 	3409.4297731961
scalar RSUExampleScenario.node[2].veinsmobility 	totalCO2Emission 	694.12567176956
scalar RSUExampleScenario.node[3].veinsmobility 	startTime 	9.1
scalar RSUExampleScenario.node[3].veinsmobility 	totalTime 	266.4
scalar RSUExampleScenario.node[3].veinsmobility 	stopTime 	275.6
scalar RSUExampleScenario.node[3].veinsmobility 	minSpeed 	0.25480048174341
scalar RSUExampleScenario.node[3].veinsmobility 	maxSpeed 	13.999873231116
scalar RSUExampleScenario.node[3].veinsmobility 	totalDistance 	3409.4998550041
scalar RSUExampleScenario.node[3].veinsmobility 	totalCO2Emission 	688.95601112499
scalar RSUExampleScenario.node[4].veinsmobility 	startTime 	12.1
scalar RSUExampleScenario.node[4].veinsmobility 	totalTime 	266.6
scalar RSUExampleScenario.node[4].veinsmobility 	stopTime 	278.8
scalar RSUExampleScenario.node[4].veinsmobility 	minSpeed 	0.25562236779067
scalar RSUExampleScenario.node[4].veinsmobility 	maxSpeed 	13.999989813915
scalar RSUExampleScenario.node[4].veinsmobility 	totalDistance 	3413.9087331643
scalar RSUExampleScenario.node[4].veinsmobility 	totalCO2Emission 	692.11555345054
scalar RSUExampleScenario.node[5].veinsmobility 	startTime 	15.1
scalar RSUExampleScenario.node[5].veinsmobility 	totalTime 	266.8
scalar RSUExampleScenario.node[5].veinsmobility 	stopTime 	282
scalar RSUExampleScenario.node[5].veinsmobility 	minSpeed 	0.25895540169301
scalar RSUExampleScenario.node[5].veinsmobility 	maxSpeed 	13.999974560728
scalar RSUExampleScenario.node[5].veinsmobility 	totalDistance 	3409.4213122735
scalar RSUExampleScenario.node[5].veinsmobility 	totalCO2Emission 	692.39511222958
scalar RSUExampleScenario.node[6].veinsmobility 	startTime 	18.1
scalar RSUExampleScenario.node[6].veinsmobility 	totalTime 	266.9
scalar RSUExampleScenario.node[6].veinsmobility 	stopTime 	285.1
scalar RSUExampleScenario.node[6].veinsmobility 	minSpeed 	0.25886300269491
scalar RSUExampleScenario.node[6].veinsmobility 	maxSpeed 	13.999955194062
scalar RSUExampleScenario.node[6].veinsmobility 	totalDistance 	3413.4975248477
scalar RSUExampleScenario.node[6].veinsmobility 	totalCO2Emission 	693.41893922668
scalar RSUExampleScenario.node[7].veinsmobility 	startTime 	21.1
scalar RSUExampleScenario.node[7].veinsmobility 	totalTime 	267
scalar RSUExampleScenario.node[7].veinsmobility 	stopTime 	288.2
scalar RSUExampleScenario.node[7].veinsmobility 	minSpeed 	0.25495790724875
scalar RSUExampleScenario.node[7].veinsmobility 	maxSpeed 	13.99995320606
scalar RSUExampleScenario.node[7].veinsmobility 	totalDistance 	3409.285374779
scalar RSUExampleScenario.node[7].veinsmobility 	totalCO2Emission 	686.49240826615
scalar RSUExampleScenario.node[8].veinsmobility 	startTime 	24.1
scalar RSUExampleScenario.node[8].veinsmobility 	totalTime 	267
scalar RSUExampleScenario.node[8].veinsmobility 	stopTime 	291.2
scalar RSUExampleScenario.node[8].veinsmobility 	minSpeed 	0.25601250280743
scalar RSUExampleScenario.node[8].veinsmobility 	maxSpeed 	13.999999373937
scalar RSUExampleScenario.node[8].veinsmobility 	totalDistance 	3413.6388363297
scalar RSUExampleScenario.node[8].veinsmobility 	totalCO2Emission 	692.22616374511
scalar RSUExampleScenario.node[9].veinsmobility 	startTime 	27.1
scalar RSUExampleScenario.node[9].veinsmobility 	totalTime 	267
scalar RSUExampleScenario.node[9].veinsmobility 	stopTime 	294.2
scalar RSUExampleScenario.node[9].veinsmobility 	minSpeed 	0.25559084839839
scalar RSUExampleScenario.node[9].veinsmobility 	maxSpeed 	13.999872078451
scalar RSUExampleScenario.node[9].veinsmobility 	totalDistance 	3409.4713802411
scalar RSUExampleScenario.node[9].veinsmobility 	totalCO2Emission 	694.30270429594
scalar RSUExampleScenario.node[10].veinsmobility 	startTime 	30.1
scalar RSUExampleScenario.node[10].veinsmobility 	totalTime 	267
scalar RSUExampleScenario.node[10].veinsmobility 	stopTime 	297.2
scalar RSUExampleScenario.node[10].veinsmobility 	minSpeed 	0.24781176480581
scalar RSUExampleScenario.node[10].veinsmobility 	maxSpeed 	13.999970316219
scalar RSUExampleScenario.node[10].veinsmobility 	totalDistance 	3414.0459165171
scalar RSUExampleScenario.node[10].veinsmobility 	totalCO2Emission 	690.12617548796
scalar RSUExampleScenario.node[11].veinsmobility 	startTime 	33.1
scalar RSUExampleScenario.node[11].veinsmobility 	totalTime 	267
scalar RSUExampleScenario.node[11].veinsmobility 	stopTime 	300.2
scalar RSUExampleScenario.node[11].veinsmobility 	minSpeed 	0.25340743092308
scalar RSUExampleScenario.node[11].veinsmobility 	maxSpeed 	13.999984994102
scalar RSUExampleScenario.node[11].veinsmobility 	totalDistance 	3409.7294668392
scalar RSUExampleScenario.node[11].veinsmobility 	totalCO2Emission 	691.61546772872
scalar RSUExampleScenario.node[12].veinsmobility 	startTime 	36.1
scalar RSUExampleScenario.node[12].veinsmobility 	totalTime 	267.1
scalar RSUExampleScenario.node[12].veinsmobility 	stopTime 	303.3
scalar RSUExampleScenario.node[12].veinsmobility 	minSpeed 	0.24946238443232
scalar RSUExampleScenario.node[12].veinsmobility 	maxSpeed 	13.999963078508
scalar RSUExampleScenario.node[12].veinsmobility 	totalDistance 	3413.5868967638
scalar RSUExampleScenario.node[12].veinsmobility 	totalCO2Emission 	692.54335916851
scalar RSUExampleScenario.node[13].veinsmobility 	startTime 	39.1
scalar RSUExampleScenario.node[13].veinsmobility 	totalTime 	267.1
scalar RSUExampleScenario.node[13].veinsmobility 	stopTime 	306.3
scalar RSUExampleScenario.node[13].veinsmobility 	minSpeed 	0.25019398059393
scalar RSUExampleScenario.node[13].veinsmobility 	maxSpeed 	13.999987107443
scalar RSUExampleScenario.node[13].veinsmobility 	totalDistance 	3409.7359404608
scalar RSUExampleScenario.node[13].veinsmobility 	totalCO2Emission 	693.41031845686
scalar RSUExampleScenario.node[14].veinsmobility 	startTime 	42.1
scalar RSUExampleScenario.node[14].veinsmobility 	totalTime 	267.1
scalar RSUExampleScenario.node[14].veinsmobility 	stopTime 	309.3
scalar RSUExampleScenario.node[14].veinsmobility 	minSpeed 	0.25830345063936
scalar RSUExampleScenario.node[14].veinsmobility 	maxSpeed 	13.999916269586
scalar RSUExampleScenario.node[14].veinsmobility 	totalDistance 	3413.8404831432
scalar RSUExampleScenario.node[14].veinsmobility 	totalCO2Emission 	692.20025588861
scalar RSUExampleScenario.node[15].veinsmobility 	startTime 	45.1
scalar RSUExampleScenario.node[15].veinsmobility 	totalTime 	267.1
scalar RSUExampleScenario.node[15].veinsmobility 	stopTime 	312.3
scalar RSUExampleScenario.node[15].veinsmobility 	minSpeed 	0.25195067231101
scalar RSUExampleScenario.node[15].veinsmobility 	maxSpeed 	13.999991816022
scalar RSUExampleScenario.node[15].veinsmobility 	totalDistance 	3409.8885283391
scalar RSUExampleScenario.node[15].veinsmobility 	totalCO2Emission 	693.17335069817
scalar RSUExampleScenario.node[16].veinsmobility 	startTime 	48.1
scalar RSUExampleScenario.node[16].veinsmobility 	totalTime 	267.2
scalar RSUExampleScenario.node[16].veinsmobility 	stopTime 	315.4
scalar RSUExampleScenario.node[16].veinsmobility 	minSpeed 	0.25859167757444
scalar RSUExampleScenario.node[16].veinsmobility 	maxSpeed 	13.9998517558
scalar RSUExampleScenario.node[16].veinsmobility 	totalDistance 	3413.4917517316
scalar RSUExampleScenario.node[16].veinsmobility 	totalCO2Emission 	692.74710497999
scalar RSUExampleScenario.node[17].veinsmobility 	startTime 	51.1
scalar RSUExampleScenario.node[17].veinsmobility 	totalTime 	267.3
scalar RSUExampleScenario.node[17].veinsmobility 	stopTime 	318.5
scalar RSUExampleScenario.node[17].veinsmobility 	minSpeed 	0.25027846355177
scalar RSUExampleScenario.node[17].veinsmobility 	maxSpeed 	13.999921734834
scalar RSUExampleScenario.node[17].veinsmobility 	totalDistance 	3409.3543998692
scalar RSUExampleScenario.node[17].veinsmobility 	totalCO2Emission 	686.99165868616
scalar RSUExampleScenario.node[18].veinsmobility 	startTime 	54.1
scalar RSUExampleScenario.node[18].veinsmobility 	totalTime 	267.3
scalar RSUExampleScenario.node[18].veinsmobility 	stopTime 	321.5
scalar RSUExampleScenario.node[18].veinsmobility 	minSpeed 	0.25163696687995
scalar RSUExampleScenario.node[18].veinsmobility 	maxSpeed 	13.999982260328
scalar RSUExampleScenario.node[18].veinsmobility 	totalDistance 	3413.8096406587
scalar RSUExampleScenario.node[18].veinsmobility 	totalCO2Emission 	692.82369162797
scalar RSUExampleScenario.node[19].veinsmobility 	startTime 	57.1
scalar RSUExampleScenario.node[19].veinsmobility 	totalTime 	267.3
scalar RSUExampleScenario.node[19].veinsmobility 	stopTime 	324.5
scalar RSUExampleScenario.node[19].veinsmobility 	minSpeed 	0.253557309255
scalar RSUExampleScenario.node[19].veinsmobility 	maxSpeed 	13.999992627113
scalar RSUExampleScenario.node[19].veinsmobility 	totalDistance 	3409.2956032336
scalar RSUExampleScenario.node[19].veinsmobility 	totalCO2Emission 	693.5459655707
scalar RSUExampleScenario.node[20].veinsmobility 	startTime 	60.1
scalar RSUExampleScenario.node[20].veinsmobility 	totalTime 	267.3
scalar RSUExampleScenario.node[20].veinsmobility 	stopTime 	327.5
scalar RSUExampleScenario.node[20].veinsmobility 	minSpeed 	0.25766927820025
scalar RSUExampleScenario.node[20].veinsmobility 	maxSpeed 	13.999897231751
scalar RSUExampleScenario.node[20].veinsmobility 	totalDistance 	3413.4303214996
scalar RSUExampleScenario.node[20].veinsmobility 	totalCO2Emission 	692.88927637633
scalar RSUExampleScenario.node[21].veinsmobility 	startTime 	63.1
scalar RSUExampleScenario.node[21].veinsmobility 	totalTime 	267.3
scalar RSUExampleScenario.node[21].veinsmobility 	stopTime 	330.5
scalar RSUExampleScenario.node[21].veinsmobility 	minSpeed 	0.24795443710568
scalar RSUExampleScenario.node[21].veinsmobility 	maxSpeed 	13.999987821435
scalar RSUExampleScenario.node[21].veinsmobility 	totalDistance 	3409.4109382102
scalar RSUExampleScenario.node[21].veinsmobility 	totalCO2Emission 	690.3373992082
scalar RSUExampleScenario.node[22].veinsmobility 	startTime 	66.1
scalar RSUExampleScenario.node[22].veinsmobility 	totalTime 	267.3
scalar RSUExampleScenario.node[22].veinsmobility 	stopTime 	333.5
scalar RSUExampleScenario.node[22].veinsmobility 	minSpeed 	0.25162185722054
scalar RSUExampleScenario.node[22].veinsmobility 	maxSpeed 	13.999998463779
scalar RSUExampleScenario.node[22].veinsmobility 	totalDistance 	3413.6013236719
scalar RSUExampleScenario.node[22].veinsmobility 	totalCO2Emission 	689.68373222864
scalar RSUExampleScenario.node[23].veinsmobility 	startTime 	69.1
scalar RSUExampleScenario.node[23].veinsmobility 	totalTime 	267.3
scalar RSUExampleScenario.node[23].veinsmobility 	stopTime 	336.5
scalar RSUExampleScenario.node[23].veinsmobility 	minSpeed 	0.2511017167524
scalar RSUExampleScenario.node[23].veinsmobility 	maxSpeed 	13.999943003147
scalar RSUExampleScenario.node[23].veinsmobility 	totalDistance 	3409.5419083041
scalar RSUExampleScenario.node[23].veinsmobility 	totalCO2Emission 	689.90310657531
scalar RSUExampleScenario.node[24].veinsmobility 	startTime 	72.1
scalar RSUExampleScenario.node[24].veinsmobility 	totalTime 	267.3
scalar RSUExampleScenario.node[24].veinsmobility 	stopTime 	339.5
scalar RSUExampleScenario.node[24].veinsmobility 	minSpeed 	0.25098906187178
scalar RSUExampleScenario.node[24].veinsmobility 	maxSpeed 	13.999951716422
scalar RSUExampleScenario.node[24].veinsmobility 	totalDistance 	3413.8820989765
scalar RSUExampleScenario.node[24].veinsmobility 	totalCO2Emission 	692.79327386593
scalar RSUExampleScenario.node[25].veinsmobility 	startTime 	75.1
scalar RSUExampleScenario.node[25].veinsmobility 	totalTime 	267.3
scalar RSUExampleScenario.node[25].veinsmobility 	stopTime 	342.5
scalar RSUExampleScenario.node[25].veinsmobility 	minSpeed 	0.25585816699732
scalar RSUExampleScenario.node[25].veinsmobility 	maxSpeed 	13.999975453967
scalar RSUExampleScenario.node[25].veinsmobility 	totalDistance 	3409.3589185678
scalar RSUExampleScenario.node[25].veinsmobility 	totalCO2Emission 	689.5738345695
scalar RSUExampleScenario.node[26].veinsmobility 	startTime 	78.1
scalar RSUExampleScenario.node[26].veinsmobility 	totalTime 	267.3
scalar RSUExampleScenario.node[26].veinsmobility 	stopTime 	345.5
scalar RSUExampleScenario.node[26].veinsmobility 	minSpeed 	0.24948155482928
scalar RSUExampleScenario.node[26].veinsmobility 	maxSpeed 	13.999988276847
scalar RSUExampleScenario.node[26].veinsmobility 	totalDistance 	3413.3658818859
scalar RSUExampleScenario.node[26].veinsmobility 	totalCO2Emission 	694.28749584195
scalar RSUExampleScenario.node[27].veinsmobility 	startTime 	81.1
scalar RSUExampleScenario.node[27].veinsmobility 	totalTime 	267.4
scalar RSUExampleScenario.node[27].veinsmobility 	stopTime 	348.6
scalar RSUExampleScenario.node[27].veinsmobility 	minSpeed 	0.25605372551596
scalar RSUExampleScenario.node[27].veinsmobility 	maxSpeed 	13.999983656954
scalar RSUExampleScenario.node[27].veinsmobility 	totalDistance 	3410.065822946
scalar RSUExampleScenario.node[27].veinsmobility 	totalCO2Emission 	691.18255154493
scalar RSUExampleScenario.node[28].veinsmobility 	startTime 	84.1
scalar RSUExampleScenario.node[28].veinsmobility 	totalTime 	267.5
scalar RSUExampleScenario.node[28].veinsmobility 	stopTime 	351.7
scalar RSUExampleScenario.node[28].veinsmobility 	minSpeed 	0.25814407997113
scalar RSUExampleScenario.node[28].veinsmobility 	maxSpeed 	13.99999920144
scalar RSUExampleScenario.node[28].veinsmobility 	totalDistance 	3413.4848595507
scalar RSUExampleScenario.node[28].veinsmobility 	totalCO2Emission 	689.7617274922
scalar RSUExampleScenario.node[29].veinsmobility 	startTime 	87.1
scalar RSUExampleScenario.node[29].veinsmobility 	totalTime 	267.6
scalar RSUExampleScenario.node[29].veinsmobility 	stopTime 	354.8
scalar RSUExampleScenario.node[29].veinsmobility 	minSpeed 	0.25352632231289
scalar RSUExampleScenario.node[29].veinsmobility 	maxSpeed 	13.999965469164
scalar RSUExampleScenario.node[29].veinsmobility 	totalDistance 	3409.7794145263
scalar RSUExampleScenario.node[29].veinsmobility 	totalCO2Emission 	689.00590623444
scalar RSUExampleScenario.node[30].veinsmobility 	startTime 	90.1
scalar RSUExampleScenario.node[30].veinsmobility 	totalTime 	267.7
scalar RSUExampleScenario.node[30].veinsmobility 	stopTime 	357.9
scalar RSUExampleScenario.node[30].veinsmobility 	minSpeed 	0.25398308372684
scalar RSUExampleScenario.node[30].veinsmobility 	maxSpeed 	13.999985760578
scalar RSUExampleScenario.node[30].veinsmobility 	totalDistance 	3409.8624172429
scalar RSUExampleScenario.node[30].veinsmobility 	totalCO2Emission 	689.73628765196
scalar RSUExampleScenario.node[31].veinsmobility 	startTime 	93.1
scalar RSUExampleScenario.node[31].veinsmobility 	totalTime 	267.8
scalar RSUExampleScenario.node[31].veinsmobility 	stopTime 	361
scalar RSUExampleScenario.node[31].veinsmobility 	minSpeed 	0.25608993648202
scalar RSUExampleScenario.node[31].veinsmobility 	maxSpeed 	13.999873881515
scalar RSUExampleScenario.node[31].veinsmobility 	totalDistance 	3413.6262008541
scalar RSUExampleScenario.node[31].veinsmobility 	totalCO2Emission 	693.97676435743
scalar RSUExampleScenario.node[32].veinsmobility 	startTime 	96.1
scalar RSUExampleScenario.node[32].veinsmobility 	totalTime 	267.9
scalar RSUExampleScenario.node[32].veinsmobility 	stopTime 	364.1
scalar RSUExampleScenario.node[32].veinsmobility 	minSpeed 	0.25165115654096
scalar RSUExampleScenario.node[32].veinsmobility 	maxSpeed 	13.999970489836
scalar RSUExampleScenario.node[32].veinsmobility 	totalDistance 	3409.4612037408
scalar RSUExampleScenario.node[32].veinsmobility 	totalCO2Emission 	687.92954754086
scalar RSUExampleScenario.node[33].veinsmobility 	startTime 	99.1
scalar RSUExampleScenario.node[33].veinsmobility 	totalTime 	268.1
scalar RSUExampleScenario.node[33].veinsmobility 	stopTime 	367.3
scalar RSUExampleScenario.node[33].veinsmobility 	minSpeed 	0.24880769468914
scalar RSUExampleScenario.node[33].veinsmobility 	maxSpeed 	13.999890479206
scalar RSUExampleScenario.node[33].veinsmobility 	totalDistance 	3414.0218239032
scalar RSUExampleScenario.node[33].veinsmobility 	totalCO2Emission 	691.51451184758
scalar RSUExampleScenario.node[34].veinsmobility 	startTime 	102.1
scalar RSUExampleScenario.node[34].veinsmobility 	totalTime 	268.3
scalar RSUExampleScenario.node[34].veinsmobility 	stopTime 	370.5
scalar RSUExampleScenario.node[34].veinsmobility 	minSpeed 	0.25830106289499
scalar RSUExampleScenario.node[34].veinsmobility 	maxSpeed 	13.999683936448
scalar RSUExampleScenario.node[34].veinsmobility 	totalDistance 	3409.8310853006
scalar RSUExampleScenario.node[34].veinsmobility 	totalCO2Emission 	690.69285749548
scalar RSUExampleScenario.node[35].veinsmobility 	startTime 	105.1
scalar RSUExampleScenario.node[35].veinsmobility 	totalTime 	268.5
scalar RSUExampleScenario.node[35].veinsmobility 	stopTime 	373.7
scalar RSUExampleScenario.node[35].veinsmobility 	minSpeed 	0.24819959630794
scalar RSUExampleScenario.node[35].veinsmobility 	maxSpeed 	13.999808508935
scalar RSUExampleScenario.node[35].veinsmobility 	totalDistance 	3413.5035729218
scalar RSUExampleScenario.node[35].veinsmobility 	totalCO2Emission 	692.91515541909
scalar RSUExampleScenario.node[36].veinsmobility 	startTime 	108.1
scalar RSUExampleScenario.node[36].veinsmobility 	totalTime 	268.8
scalar RSUExampleScenario.node[36].veinsmobility 	stopTime 	377
scalar RSUExampleScenario.node[36].veinsmobility 	minSpeed 	0.25519969393173
scalar RSUExampleScenario.node[36].veinsmobility 	maxSpeed 	13.999974754625
scalar RSUExampleScenario.node[36].veinsmobility 	totalDistance 	3409.7866629864
scalar RSUExampleScenario.node[36].veinsmobility 	totalCO2Emission 	690.414422354
scalar RSUExampleScenario.node[37].veinsmobility 	startTime 	111.1
scalar RSUExampleScenario.node[37].veinsmobility 	totalTime 	269.1
scalar RSUExampleScenario.node[37].veinsmobility 	stopTime 	380.3
scalar RSUExampleScenario.node[37].veinsmobility 	minSpeed 	0.25903574673599
scalar RSUExampleScenario.node[37].veinsmobility 	maxSpeed 	13.999957060658
scalar RSUExampleScenario.node[37].veinsmobility 	totalDistance 	3413.6765811785
scalar RSUExampleScenario.node[37].veinsmobility 	totalCO2Emission 	687.75581573953
scalar RSUExampleScenario.node[38].veinsmobility 	startTime 	114.1
scalar RSUExampleScenario.node[38].veinsmobility 	totalTime 	269.5
scalar RSUExampleScenario.node[38].veinsmobility 	stopTime 	383.7
scalar RSUExampleScenario.node[38].veinsmobility 	minSpeed 	0.24818987772148
scalar RSUExampleScenario.node[38].veinsmobility 	maxSpeed 	13.999927458479
scalar RSUExampleScenario.node[38].veinsmobility 	totalDistance 	3409.6764652049
scalar RSUExampleScenario.node[38].veinsmobility 	totalCO2Emission 	694.2384819392
scalar RSUExampleScenario.node[39].veinsmobility 	startTime 	117.1
scalar RSUExampleScenario.node[39].veinsmobility 	totalTime 	270
scalar RSUExampleScenario.node[39].veinsmobility 	stopTime 	387.2
scalar RSUExampleScenario.node[39].veinsmobility 	minSpeed 	0.24766902447562
scalar RSUExampleScenario.node[39].veinsmobility 	maxSpeed 	13.999847326898
scalar RSUExampleScenario.node[39].veinsmobility 	totalDistance 	3413.8149229127
scalar RSUExampleScenario.node[39].veinsmobility 	totalCO2Emission 	691.67055620308
scalar RSUExampleScenario.node[40].veinsmobility 	startTime 	120.1
scalar RSUExampleScenario.node[40].veinsmobility 	totalTime 	270.5
scalar RSUExampleScenario.node[40].veinsmobility 	stopTime 	390.7
scalar RSUExampleScenario.node[40].veinsmobility 	minSpeed 	0.25991350001097
scalar RSUExampleScenario.node[40].veinsmobility 	maxSpeed 	13.999913936227
scalar RSUExampleScenario.node[40].veinsmobility 	totalDistance 	3409.6083043985
scalar RSUExampleScenario.node[40].veinsmobility 	totalCO2Emission 	694.21450633564
scalar RSUExampleScenario.node[41].veinsmobility 	startTime 	123.1
scalar RSUExampleScenario.node[41].veinsmobility 	totalTime 	271
scalar RSUExampleScenario.node[41].veinsmobility 	stopTime 	394.2
scalar RSUExampleScenario.node[41].veinsmobility 	minSpeed 	0.25356694676261
scalar RSUExampleScenario.node[41].veinsmobility 	maxSpeed 	13.999985187908
scalar RSUExampleScenario.node[41].veinsmobility 	totalDistance 	3413.6831549524
scalar RSUExampleScenario.node[41].veinsmobility 	totalCO2Emission 	691.83567731075
scalar RSUExampleScenario.node[42].veinsmobility 	startTime 	126.1
scalar RSUExampleScenario.node[42].veinsmobility 	totalTime 	271.6
scalar RSUExampleScenario.node[42].veinsmobility 	stopTime 	397.8
scalar RSUExampleScenario.node[42].veinsmobility 	minSpeed 	0.25302629152685
scalar RSUExampleScenario.node[42].veinsmobility 	maxSpeed 	13.999903871063
scalar RSUExampleScenario.node[42].veinsmobility 	totalDistance 	3409.9461097542
scalar RSUExampleScenario.node[42].veinsmobility 	totalCO2Emission 	692.25072803799
scalar RSUExampleScenario.node[43].veinsmobility 	startTime 	129.1
scalar RSUExampleScenario.node[43].veinsmobility 	totalTime 	272.3
scalar RSUExampleScenario.node[43].veinsmobility 	stopTime 	401.5
scalar RSUExampleScenario.node[43].veinsmobility 	minSpeed 	0.25099026905582
scalar RSUExampleScenario.node[43].veinsmobility 	maxSpeed 	13.999986360914
scalar RSUExampleScenario.node[43].veinsmobility 	totalDistance 	3414.2111778139
scalar RSUExampleScenario.node[43].veinsmobility 	totalCO2Emission 	693.4607647452
scalar RSUExampleScenario.node[44].veinsmobility 	startTime 	132.1
scalar RSUExampleScenario.node[44].veinsmobility 	totalTime 	273
scalar RSUExampleScenario.node[44].veinsmobility 	stopTime 	405.2
scalar RSUExampleScenario.node[44].veinsmobility 	minSpeed 	0.24710396616533
scalar RSUExampleScenario.node[44].veinsmobility 	maxSpeed 	13.999917372945
scalar RSUExampleScenario.node[44].veinsmobility 	totalDistance 	3409.8481397102
scalar RSUExampleScenario.node[44].veinsmobility 	totalCO2Emission 	696.55069680246
scalar RSUExampleScenario.node[45].veinsmobility 	startTime 	135.1
scalar RSUExampleScenario.node[45].veinsmobility 	totalTime 	273.7
scalar RSUExampleScenario.node[45].veinsmobility 	stopTime 	408.9
scalar RSUExampleScenario.node[45].veinsmobility 	minSpeed 	0.25174877671478
scalar RSUExampleScenario.node[45].veinsmobility 	maxSpeed 	13.999996725791
scalar RSUExampleScenario.node[45].veinsmobility 	totalDistance 	3414.0255034471
scalar RSUExampleScenario.node[45].veinsmobility 	totalCO2Emission 	694.0402808103
scalar RSUExampleScenario.node[46].veinsmobility 	startTime 	138.1
scalar RSUExampleScenario.node[46].veinsmobility 	totalTime 	274.4
scalar RSUExampleScenario.node[46].veinsmobility 	stopTime 	412.6
scalar RSUExampleScenario.node[46].veinsmobility 	minSpeed 	0.25686049560807
scalar RSUExampleScenario.node[46].veinsmobility 	maxSpeed 	13.999992857119
scalar RSUExampleScenario.node[46].veinsmobility 	totalDistance 	3409.4944386191
scalar RSUExampleScenario.node[46].veinsmobility 	totalCO2Emission 	697.42617705697
scalar RSUExampleScenario.node[47].veinsmobility 	startTime 	141.1
scalar RSUExampleScenario.node[47].veinsmobility 	totalTime 	275.1
scalar RSUExampleScenario.node[47].veinsmobility 	stopTime 	416.3
scalar RSUExampleScenario.node[47].veinsmobility 	minSpeed 	0.25136016118107
scalar RSUExampleScenario.node[47].veinsmobility 	maxSpeed 	13.999789211946
scalar RSUExampleScenario.node[47].veinsmobility 	totalDistance 	3413.8429318038
scalar RSUExampleScenario.node[47].veinsmobility 	totalCO2Emission 	698.33719650688
scalar RSUExampleScenario.node[48].veinsmobility 	startTime 	144.1
scalar RSUExampleScenario.node[48].veinsmobility 	totalTime 	275.7
scalar RSUExampleScenario.node[48].veinsmobility 	stopTime 	419.9
scalar RSUExampleScenario.node[48].veinsmobility 	minSpeed 	0.25300424715155
scalar RSUExampleScenario.node[48].veinsmobility 	maxSpeed 	13.999810825374
scalar RSUExampleScenario.node[48].veinsmobility 	totalDistance 	3409.7021842336
scalar RSUExampleScenario.node[48].veinsmobility 	totalCO2Emission 	700.0325340481
scalar RSUExampleScenario.node[49].veinsmobility 	startTime 	147.1
scalar RSUExampleScenario.node[49].veinsmobility 	totalTime 	276.4
scalar RSUExampleScenario.node[49].veinsmobility 	stopTime 	423.6
scalar RSUExampleScenario.node[49].veinsmobility 	minSpeed 	0.25633800502168
scalar RSUExampleScenario.node[49].veinsmobility 	maxSpeed 	13.999960149445
scalar RSUExampleScenario.node[49].veinsmobility 	totalDistance 	3414.0895514363
scalar RSUExampleScenario.node[49].veinsmobility 	totalCO2Emission 	704.84749254575
scalar RSUExampleScenario.node[50].veinsmobility 	startTime 	150.1
scalar RSUExampleScenario.node[50].veinsmobility 	totalTime 	277
scalar RSUExampleScenario.node[50].veinsmobility 	stopTime 	427.2
scalar RSUExampleScenario.node[50].veinsmobility 	minSpeed 	0.25761018969631
scalar RSUExampleScenario.node[50].veinsmobility 	maxSpeed 	13.999936073595
scalar RSUExampleScenario.node[50].veinsmobility 	totalDistance 	3409.6565514459
scalar RSUExampleScenario.node[50].veinsmobility 	totalCO2Emission 	699.21754465249
scalar RSUExampleScenario.node[51].veinsmobility 	startTime 	153.1
scalar RSUExampleScenario.node[51].veinsmobility 	totalTime 	277.6
scalar RSUExampleScenario.node[51].veinsmobility 	stopTime 	430.8
scalar RSUExampleScenario.node[51].veinsmobility 	minSpeed 	0.25741550430306
scalar RSUExampleScenario.node[51].veinsmobility 	maxSpeed 	13.999996192227
scalar RSUExampleScenario.node[51].veinsmobility 	totalDistance 	3413.7877877287
scalar RSUExampleScenario.node[51].veinsmobility 	totalCO2Emission 	703.57932186318
scalar RSUExampleScenario.node[52].veinsmobility 	startTime 	156.1
scalar RSUExampleScenario.node[52].veinsmobility 	totalTime 	278.3
scalar RSUExampleScenario.node[52].veinsmobility 	stopTime 	434.5
scalar RSUExampleScenario.node[52].veinsmobility 	minSpeed 	0.25162307852157
scalar RSUExampleScenario.node[52].veinsmobility 	maxSpeed 	13.999871523548
scalar RSUExampleScenario.node[52].veinsmobility 	totalDistance 	3410.0515145072
scalar RSUExampleScenario.node[52].veinsmobility 	totalCO2Emission 	701.4350691575
scalar RSUExampleScenario.node[53].veinsmobility 	startTime 	159.1
scalar RSUExampleScenario.node[53].veinsmobility 	totalTime 	279
scalar RSUExampleScenario.node[53].veinsmobility 	stopTime 	438.2
scalar RSUExampleScenario.node[53].veinsmobility 	minSpeed 	0.24997894092905
scalar RSUExampleScenario.node[53].veinsmobility 	maxSpeed 	13.999801159808
scalar RSUExampleScenario.node[53].veinsmobility 	totalDistance 	3413.9171339122
scalar RSUExampleScenario.node[53].veinsmobility 	totalCO2Emission 	699.00034706659
scalar RSUExampleScenario.node[54].veinsmobility 	startTime 	162.1
scalar RSUExampleScenario.node[54].veinsmobility 	totalTime 	279.8
scalar RSUExampleScenario.node[54].veinsmobility 	stopTime 	442
scalar RSUExampleScenario.node[54].veinsmobility 	minSpeed 	0.25003054146073
scalar RSUExampleScenario.node[54].veinsmobility 	maxSpeed 	13.999956840579
scalar RSUExampleScenario.node[54].veinsmobility 	totalDistance 	3409.9013231444
scalar RSUExampleScenario.node[54].veinsmobility 	totalCO2Emission 	701.3887682536
scalar RSUExampleScenario.node[55].veinsmobility 	startTime 	165.1
scalar RSUExampleScenario.node[55].veinsmobility 	totalTime 	280.5
scalar RSUExampleScenario.node[55].veinsmobility 	stopTime 	445.7
scalar RSUExampleScenario.node[55].veinsmobility 	minSpeed 	0.25927039602259
scalar RSUExampleScenario.node[55].veinsmobility 	maxSpeed 	13.99998633903
scalar RSUExampleScenario.node[55].veinsmobility 	totalDistance 	3414.1925952887
scalar RSUExampleScenario.node[55].veinsmobility 	totalCO2Emission 	700.19988936353
scalar RSUExampleScenario.node[56].veinsmobility 	startTime 	168.1
scalar RSUExampleScenario.node[56].veinsmobility 	totalTime 	281.1
scalar RSUExampleScenario.node[56].veinsmobility 	stopTime 	449.3
scalar RSUExampleScenario.node[56].veinsmobility 	minSpeed 	0.25272378978389
scalar RSUExampleScenario.node[56].veinsmobility 	maxSpeed 	13.999976720228
scalar RSUExampleScenario.node[56].veinsmobility 	totalDistance 	3409.5490912929
scalar RSUExampleScenario.node[56].veinsmobility 	totalCO2Emission 	705.27373631004
scalar RSUExampleScenario.node[57].veinsmobility 	startTime 	171.1
scalar RSUExampleScenario.node[57].veinsmobility 	totalTime 	281.8
scalar RSUExampleScenario.node[57].veinsmobility 	stopTime 	453
scalar RSUExampleScenario.node[57].veinsmobility 	minSpeed 	0.25234780693217
scalar RSUExampleScenario.node[57].veinsmobility 	maxSpeed 	13.99991514958
scalar RSUExampleScenario.node[57].veinsmobility 	totalDistance 	3413.9520827744
scalar RSUExampleScenario.node[57].veinsmobility 	totalCO2Emission 	702.97497479584
scalar RSUExampleScenario.node[58].veinsmobility 	startTime 	174.1
scalar RSUExampleScenario.node[58].veinsmobility 	totalTime 	282.5
scalar RSUExampleScenario.node[58].veinsmobility 	stopTime 	456.7
scalar RSUExampleScenario.node[58].veinsmobility 	minSpeed 	0.25928146288428
scalar RSUExampleScenario.node[58].veinsmobility 	maxSpeed 	13.99978724825
scalar RSUExampleScenario.node[58].veinsmobility 	totalDistance 	3409.5683693584
scalar RSUExampleScenario.node[58].veinsmobility 	totalCO2Emission 	705.0382260034
scalar RSUExampleScenario.node[59].veinsmobility 	startTime 	177.1
scalar RSUExampleScenario.node[59].veinsmobility 	totalTime 	283.2
scalar RSUExampleScenario.node[59].veinsmobility 	stopTime 	460.4
scalar RSUExampleScenario.node[59].veinsmobility 	minSpeed 	0.25090160844126
scalar RSUExampleScenario.node[59].veinsmobility 	maxSpeed 	13.999995757882
scalar RSUExampleScenario.node[59].veinsmobility 	totalDistance 	3413.6738289313
scalar RSUExampleScenario.node[59].veinsmobility 	totalCO2Emission 	701.57738307762
scalar RSUExampleScenario.node[60].veinsmobility 	startTime 	180.1
scalar RSUExampleScenario.node[60].veinsmobility 	totalTime 	283.8
scalar RSUExampleScenario.node[60].veinsmobility 	stopTime 	464
scalar RSUExampleScenario.node[60].veinsmobility 	minSpeed 	0.25974109867914
scalar RSUExampleScenario.node[60].veinsmobility 	maxSpeed 	13.999937483356
scalar RSUExampleScenario.node[60].veinsmobility 	totalDistance 	3409.5315626554
scalar RSUExampleScenario.node[60].veinsmobility 	totalCO2Emission 	704.61575702106
scalar RSUExampleScenario.node[61].veinsmobility 	startTime 	183.1
scalar RSUExampleScenario.node[61].veinsmobility 	totalTime 	284.5
scalar RSUExampleScenario.node[61].veinsmobility 	stopTime 	467.7
scalar RSUExampleScenario.node[61].veinsmobility 	minSpeed 	0.25243636744446
scalar RSUExampleScenario.node[61].veinsmobility 	maxSpeed 	13.999925786657
scalar RSUExampleScenario.node[61].veinsmobility 	totalDistance 	3414.063530741
scalar RSUExampleScenario.node[61].veinsmobility 	totalCO2Emission 	705.41059304261
scalar RSUExampleScenario.node[62].veinsmobility 	startTime 	186.1
scalar RSUExampleScenario.node[62].veinsmobility 	totalTime 	285.3
scalar RSUExampleScenario.node[62].veinsmobility 	stopTime 	471.5
scalar RSUExampleScenario.node[62].veinsmobility 	minSpeed 	0.25642811084166
scalar RSUExampleScenario.node[62].veinsmobility 	maxSpeed 	13.999923867879
scalar RSUExampleScenario.node[62].veinsmobility 	totalDistance 	3410.0629463419
scalar RSUExampleScenario.node[62].veinsmobility 	totalCO2Emission 	706.84165763892
scalar RSUExampleScenario.node[63].veinsmobility 	startTime 	189.1
scalar RSUExampleScenario.node[63].veinsmobility 	totalTime 	286
scalar RSUExampleScenario.node[63].veinsmobility 	stopTime 	475.2
scalar RSUExampleScenario.node[63].veinsmobility 	minSpeed 	0.25353413432813
scalar RSUExampleScenario.node[63].veinsmobility 	maxSpeed 	13.999968567183
scalar RSUExampleScenario.node[63].veinsmobility 	totalDistance 	3413.9821881114
scalar RSUExampleScenario.node[63].veinsmobility 	totalCO2Emission 	707.95071922025
scalar RSUExampleScenario.node[64].veinsmobility 	startTime 	192.1
scalar RSUExampleScenario.node[64].veinsmobility 	totalTime 	286.6
scalar RSUExampleScenario.node[64].veinsmobility 	stopTime 	478.8
scalar RSUExampleScenario.node[64].veinsmobility 	minSpeed 	0.25315404732246
scalar RSUExampleScenario.node[64].veinsmobility 	maxSpeed 	13.999995987797
scalar RSUExampleScenario.node[64].veinsmobility 	totalDistance 	3409.6535839306
scalar RSUExampleScenario.node[64].veinsmobility 	totalCO2Emission 	707.49518398061
scalar RSUExampleScenario.node[65].veinsmobility 	startTime 	195.1
scalar RSUExampleScenario.node[65].veinsmobility 	totalTime 	287.3
scalar RSUExampleScenario.node[65].veinsmobility 	stopTime 	482.5
scalar RSUExampleScenario.node[65].veinsmobility 	minSpeed 	0.25612757555814
scalar RSUExampleScenario.node[65].veinsmobility 	maxSpeed 	13.999922769303
scalar RSUExampleScenario.node[65].veinsmobility 	totalDistance 	3414.1926283688
scalar RSUExampleScenario.node[65].veinsmobility 	totalCO2Emission 	709.69656162064
scalar RSUExampleScenario.node[66].veinsmobility 	startTime 	198.1
scalar RSUExampleScenario.node[66].veinsmobility 	totalTime 	288
scalar RSUExampleScenario.node[66].veinsmobility 	stopTime 	486.2
scalar RSUExampleScenario.node[66].veinsmobility 	minSpeed 	0.25726689221105
scalar RSUExampleScenario.node[66].veinsmobility 	maxSpeed 	13.999981475933
scalar RSUExampleScenario.node[66].veinsmobility 	totalDistance 	3409.8083571477
scalar RSUExampleScenario.node[66].veinsmobility 	totalCO2Emission 	710.81450850999
scalar RSUExampleScenario.node[67].veinsmobility 	startTime 	201.1
scalar RSUExampleScenario.node[67].veinsmobility 	totalTime 	288.6
scalar RSUExampleScenario.node[67].veinsmobility 	stopTime 	489.8
scalar RSUExampleScenario.node[67].veinsmobility 	minSpeed 	0.2541813475797
scalar RSUExampleScenario.node[67].veinsmobility 	maxSpeed 	13.999946816035
scalar RSUExampleScenario.node[67].veinsmobility 	totalDistance 	3413.8883910748
scalar RSUExampleScenario.node[67].veinsmobility 	totalCO2Emission 	712.66915834437
scalar RSUExampleScenario.node[68].veinsmobility 	startTime 	204.1
scalar RSUExampleScenario.node[68].veinsmobility 	totalTime 	289.2
scalar RSUExampleScenario.node[68].veinsmobility 	stopTime 	493.4
scalar RSUExampleScenario.node[68].veinsmobility 	minSpeed 	0.25989846510743
scalar RSUExampleScenario.node[68].veinsmobility 	maxSpeed 	13.999984118904
scalar RSUExampleScenario.node[68].veinsmobility 	totalDistance 	3409.3928057824
scalar RSUExampleScenario.node[68].veinsmobility 	totalCO2Emission 	712.35114312705
scalar RSUExampleScenario.node[69].veinsmobility 	startTime 	207.1
scalar RSUExampleScenario.node[69].veinsmobility 	totalTime 	289.9
scalar RSUExampleScenario.node[69].veinsmobility 	stopTime 	497.1
scalar RSUExampleScenario.node[69].veinsmobility 	minSpeed 	0.25883234173292
scalar RSUExampleScenario.node[69].veinsmobility 	maxSpeed 	13.999908239914
scalar RSUExampleScenario.node[69].veinsmobility 	totalDistance 	3414.058992425
scalar RSUExampleScenario.node[69].veinsmobility 	totalCO2Emission 	713.90259212726
scalar RSUExampleScenario.node[70].veinsmobility 	startTime 	210.1
scalar RSUExampleScenario.node[70].veinsmobility 	totalTime 	290.5
scalar RSUExampleScenario.node[70].veinsmobility 	stopTime 	500.7
scalar RSUExampleScenario.node[70].veinsmobility 	minSpeed 	0.25958456646674
scalar RSUExampleScenario.node[70].veinsmobility 	maxSpeed 	13.999930337903
scalar RSUExampleScenario.node[70].veinsmobility 	totalDistance 	3409.8047375489
scalar RSUExampleScenario.node[70].veinsmobility 	totalCO2Emission 	714.0524968335
scalar RSUExampleScenario.node[71].veinsmobility 	startTime 	213.1
scalar RSUExampleScenario.node[71].veinsmobility 	totalTime 	291.1
scalar RSUExampleScenario.node[71].veinsmobility 	stopTime 	504.3
scalar RSUExampleScenario.node[71].veinsmobility 	minSpeed 	0.25822693270748
scalar RSUExampleScenario.node[71].veinsmobility 	maxSpeed 	13.999987060619
scalar RSUExampleScenario.node[71].veinsmobility 	totalDistance 	3413.6552303839
scalar RSUExampleScenario.node[71].veinsmobility 	totalCO2Emission 	712.28307980401
scalar RSUExampleScenario.node[72].veinsmobility 	startTime 	216.1
scalar RSUExampleScenario.node[72].veinsmobility 	totalTime 	291.7
scalar RSUExampleScenario.node[72].veinsmobility 	stopTime 	507.9
scalar RSUExampleScenario.node[72].veinsmobility 	minSpeed 	0.24870988195646
scalar RSUExampleScenario.node[72].veinsmobility 	maxSpeed 	13.999922636608
scalar RSUExampleScenario.node[72].veinsmobility 	totalDistance 	3409.3839612524
scalar RSUExampleScenario.node[72].veinsmobility 	totalCO2Emission 	710.69985164838
scalar RSUExampleScenario.node[73].veinsmobility 	startTime 	219.1
scalar RSUExampleScenario.node[73].veinsmobility 	totalTime 	292.4
scalar RSUExampleScenario.node[73].veinsmobility 	stopTime 	511.6
scalar RSUExampleScenario.node[73].veinsmobility 	minSpeed 	0.25105392098497
scalar RSUExampleScenario.node[73].veinsmobility 	maxSpeed 	13.999932207768
scalar RSUExampleScenario.node[73].veinsmobility 	totalDistance 	3409.9825285197
scalar RSUExampleScenario.node[73].veinsmobility 	totalCO2Emission 	714.17633999954
scalar RSUExampleScenario.node[74].veinsmobility 	startTime 	222.1
scalar RSUExampleScenario.node[74].veinsmobility 	totalTime 	293.1
scalar RSUExampleScenario.node[74].veinsmobility 	stopTime 	515.3
scalar RSUExampleScenario.node[74].veinsmobility 	minSpeed 	0.2566115932581
scalar RSUExampleScenario.node[74].veinsmobility 	maxSpeed 	13.999938346781
scalar RSUExampleScenario.node[74].veinsmobility 	totalDistance 	3414.1429274376
scalar RSUExampleScenario.node[74].veinsmobility 	totalCO2Emission 	719.20367121927
scalar RSUExampleScenario.node[75].veinsmobility 	startTime 	225.1
scalar RSUExampleScenario.node[75].veinsmobility 	totalTime 	293.8
scalar RSUExampleScenario.node[75].veinsmobility 	stopTime 	519
scalar RSUExampleScenario.node[75].veinsmobility 	minSpeed 	0.25912006460922
scalar RSUExampleScenario.node[75].veinsmobility 	maxSpeed 	13.999966031967
scalar RSUExampleScenario.node[75].veinsmobility 	totalDistance 	3409.7266581854
scalar RSUExampleScenario.node[75].veinsmobility 	totalCO2Emission 	718.66075966484
scalar RSUExampleScenario.node[76].veinsmobility 	startTime 	228.1
scalar RSUExampleScenario.node[76].veinsmobility 	totalTime 	294.5
scalar RSUExampleScenario.node[76].veinsmobility 	stopTime 	522.7
scalar RSUExampleScenario.node[76].veinsmobility 	minSpeed 	0.25638806533371
scalar RSUExampleScenario.node[76].veinsmobility 	maxSpeed 	13.999919042799
scalar RSUExampleScenario.node[76].veinsmobility 	totalDistance 	3414.238183093
scalar RSUExampleScenario.node[76].veinsmobility 	totalCO2Emission 	715.14378775125
scalar RSUExampleScenario.node[77].veinsmobility 	startTime 	231.1
scalar RSUExampleScenario.node[77].veinsmobility 	totalTime 	295.2
scalar RSUExampleScenario.node[77].veinsmobility 	stopTime 	526.4
scalar RSUExampleScenario.node[77].veinsmobility 	minSpeed 	0.25988195379218
scalar RSUExampleScenario.node[77].veinsmobility 	maxSpeed 	13.999787024357
scalar RSUExampleScenario.node[77].veinsmobility 	totalDistance 	3409.6460521197
scalar RSUExampleScenario.node[77].veinsmobility 	totalCO2Emission 	715.89474198098
scalar RSUExampleScenario.node[78].veinsmobility 	startTime 	234.1
scalar RSUExampleScenario.node[78].veinsmobility 	totalTime 	295.8
scalar RSUExampleScenario.node[78].veinsmobility 	stopTime 	530
scalar RSUExampleScenario.node[78].veinsmobility 	minSpeed 	0.25606100551691
scalar RSUExampleScenario.node[78].veinsmobility 	maxSpeed 	13.999954458186
scalar RSUExampleScenario.node[78].veinsmobility 	totalDistance 	3414.053262502
scalar RSUExampleScenario.node[78].veinsmobility 	totalCO2Emission 	717.16746564018
scalar RSUExampleScenario.node[79].veinsmobility 	startTime 	237.1
scalar RSUExampleScenario.node[79].veinsmobility 	totalTime 	296.5
scalar RSUExampleScenario.node[79].veinsmobility 	stopTime 	533.7
scalar RSUExampleScenario.node[79].veinsmobility 	minSpeed 	0.24731303139636
scalar RSUExampleScenario.node[79].veinsmobility 	maxSpeed 	13.999993349337
scalar RSUExampleScenario.node[79].veinsmobility 	totalDistance 	3409.5982707939
scalar RSUExampleScenario.node[79].veinsmobility 	totalCO2Emission 	718.01539811096
scalar RSUExampleScenario.node[80].veinsmobility 	startTime 	240.1
scalar RSUExampleScenario.node[80].veinsmobility 	totalTime 	297.2
scalar RSUExampleScenario.node[80].veinsmobility 	stopTime 	537.4
scalar RSUExampleScenario.node[80].veinsmobility 	minSpeed 	0.25111525603314
scalar RSUExampleScenario.node[80].veinsmobility 	maxSpeed 	13.999959033465
scalar RSUExampleScenario.node[80].veinsmobility 	totalDistance 	3413.9055485997
scalar RSUExampleScenario.node[80].veinsmobility 	totalCO2Emission 	719.47800571858
scalar RSUExampleScenario.node[81].veinsmobility 	startTime 	243.1
scalar RSUExampleScenario.node[81].veinsmobility 	totalTime 	297.9
scalar RSUExampleScenario.node[81].veinsmobility 	stopTime 	541.1
scalar RSUExampleScenario.node[81].veinsmobility 	minSpeed 	0.25718213768583
scalar RSUExampleScenario.node[81].veinsmobility 	maxSpeed 	13.999950289619
scalar RSUExampleScenario.node[81].veinsmobility 	totalDistance 	3409.5384951579
scalar RSUExampleScenario.node[81].veinsmobility 	totalCO2Emission 	718.42929026507
scalar RSUExampleScenario.node[82].veinsmobility 	startTime 	246.1
scalar RSUExampleScenario.node[82].veinsmobility 	totalTime 	298.5
scalar RSUExampleScenario.node[82].veinsmobility 	stopTime 	544.7
scalar RSUExampleScenario.node[82].veinsmobility 	minSpeed 	0.25944238255895
scalar RSUExampleScenario.node[82].veinsmobility 	maxSpeed 	13.999940481491
scalar RSUExampleScenario.node[82].veinsmobility 	totalDistance 	3413.7497644996
scalar RSUExampleScenario.node[82].veinsmobility 	totalCO2Emission 	722.92092009371
scalar RSUExampleScenario.node[83].veinsmobility 	startTime 	249.1
scalar RSUExampleScenario.node[83].veinsmobility 	totalTime 	299.1
scalar RSUExampleScenario.node[83].veinsmobility 	stopTime 	548.3
scalar RSUExampleScenario.node[83].veinsmobility 	minSpeed 	0.25259365530917
scalar RSUExampleScenario.node[83].veinsmobility 	maxSpeed 	13.999951615054
scalar RSUExampleScenario.node[83].veinsmobility 	totalDistance 	3409.8054567927
scalar RSUExampleScenario.node[83].veinsmobility 	totalCO2Emission 	718.42052510168
scalar RSUExampleScenario.node[84].veinsmobility 	startTime 	252.1
scalar RSUExampleScenario.node[84].veinsmobility 	totalTime 	299.7
scalar RSUExampleScenario.node[84].veinsmobility 	stopTime 	551.9
scalar RSUExampleScenario.node[84].veinsmobility 	minSpeed 	0.24926646612119
scalar RSUExampleScenario.node[84].veinsmobility 	maxSpeed 	13.999992749153
scalar RSUExampleScenario.node[84].veinsmobility 	totalDistance 	3413.827364717
scalar RSUExampleScenario.node[84].veinsmobility 	totalCO2Emission 	719.47723104288
scalar RSUExampleScenario.node[85].veinsmobility 	startTime 	255.1
scalar RSUExampleScenario.node[85].veinsmobility 	totalTime 	300.4
scalar RSUExampleScenario.node[85].veinsmobility 	stopTime 	555.6
scalar RSUExampleScenario.node[85].veinsmobility 	minSpeed 	0.25486819999758
scalar RSUExampleScenario.node[85].veinsmobility 	maxSpeed 	13.999871767689
scalar RSUExampleScenario.node[85].veinsmobility 	totalDistance 	3409.9484529198
scalar RSUExampleScenario.node[85].veinsmobility 	totalCO2Emission 	722.056423422
scalar RSUExampleScenario.node[86].veinsmobility 	startTime 	258.1
scalar RSUExampleScenario.node[86].veinsmobility 	totalTime 	301.1
scalar RSUExampleScenario.node[86].veinsmobility 	stopTime 	559.3
scalar RSUExampleScenario.node[86].veinsmobility 	minSpeed 	0.25700381799159
scalar RSUExampleScenario.node[86].veinsmobility 	maxSpeed 	13.999750253691
scalar RSUExampleScenario.node[86].veinsmobility 	totalDistance 	3414.030378184
scalar RSUExampleScenario.node[86].veinsmobility 	totalCO2Emission 	724.59736986325
scalar RSUExampleScenario.node[87].veinsmobility 	startTime 	261.1
scalar RSUExampleScenario.node[87].veinsmobility 	totalTime 	301.8
scalar RSUExampleScenario.node[87].veinsmobility 	stopTime 	563
scalar RSUExampleScenario.node[87].veinsmobility 	minSpeed 	0.25938136554253
scalar RSUExampleScenario.node[87].veinsmobility 	maxSpeed 	13.999883578802
scalar RSUExampleScenario.node[87].veinsmobility 	totalDistance 	3409.5579707062
scalar RSUExampleScenario.node[87].veinsmobility 	totalCO2Emission 	726.14249999599
scalar RSUExampleScenario.node[88].veinsmobility 	startTime 	264.1
scalar RSUExampleScenario.node[88].veinsmobility 	totalTime 	302.4
scalar RSUExampleScenario.node[88].veinsmobility 	stopTime 	566.6
scalar RSUExampleScenario.node[88].veinsmobility 	minSpeed 	0.25813501482201
scalar RSUExampleScenario.node[88].veinsmobility 	maxSpeed 	13.99996196619
scalar RSUExampleScenario.node[88].veinsmobility 	totalDistance 	3413.725216212
scalar RSUExampleScenario.node[88].veinsmobility 	totalCO2Emission 	727.13846868102
scalar RSUExampleScenario.node[89].veinsmobility 	startTime 	267.1
scalar RSUExampleScenario.node[89].veinsmobility 	totalTime 	303.1
scalar RSUExampleScenario.node[89].veinsmobility 	stopTime 	570.3
scalar RSUExampleScenario.node[89].veinsmobility 	minSpeed 	0.25424525458924
scalar RSUExampleScenario.node[89].veinsmobility 	maxSpeed 	13.999920290173
scalar RSUExampleScenario.node[89].veinsmobility 	totalDistance 	3410.0322494156
scalar RSUExampleScenario.node[89].veinsmobility 	totalCO2Emission 	726.89525084604
scalar RSUExampleScenario.node[90].veinsmobility 	startTime 	270.1
scalar RSUExampleScenario.node[90].veinsmobility 	totalTime 	303.8
scalar RSUExampleScenario.node[90].veinsmobility 	stopTime 	574
scalar RSUExampleScenario.node[90].veinsmobility 	minSpeed 	0.25715783116012
scalar RSUExampleScenario.node[90].veinsmobility 	maxSpeed 	13.999771864698
scalar RSUExampleScenario.node[90].veinsmobility 	totalDistance 	3409.963422917
scalar RSUExampleScenario.node[90].veinsmobility 	totalCO2Emission 	728.90435374449
scalar RSUExampleScenario.node[91].veinsmobility 	startTime 	273.1
scalar RSUExampleScenario.node[91].veinsmobility 	totalTime 	304.4
scalar RSUExampleScenario.node[91].veinsmobility 	stopTime 	577.6
scalar RSUExampleScenario.node[91].veinsmobility 	minSpeed 	0.25315956117143
scalar RSUExampleScenario.node[91].veinsmobility 	maxSpeed 	13.999958664074
scalar RSUExampleScenario.node[91].veinsmobility 	totalDistance 	3413.6929581937
scalar RSUExampleScenario.node[91].veinsmobility 	totalCO2Emission 	722.88807412831
scalar RSUExampleScenario.node[92].veinsmobility 	startTime 	276.1
scalar RSUExampleScenario.node[92].veinsmobility 	totalTime 	305
scalar RSUExampleScenario.node[92].veinsmobility 	stopTime 	581.2
scalar RSUExampleScenario.node[92].veinsmobility 	minSpeed 	0.25943702533469
scalar RSUExampleScenario.node[92].veinsmobility 	maxSpeed 	13.999942078218
scalar RSUExampleScenario.node[92].veinsmobility 	totalDistance 	3409.7917808485
scalar RSUExampleScenario.node[92].veinsmobility 	totalCO2Emission 	728.43319752159
scalar RSUExampleScenario.node[93].veinsmobility 	startTime 	279.1
scalar RSUExampleScenario.node[93].veinsmobility 	totalTime 	305.7
scalar RSUExampleScenario.node[93].veinsmobility 	stopTime 	584.9
scalar RSUExampleScenario.node[93].veinsmobility 	minSpeed 	0.2590404444905
scalar RSUExampleScenario.node[93].veinsmobility 	maxSpeed 	13.99998024445
scalar RSUExampleScenario.node[93].veinsmobility 	totalDistance 	3413.6505238282
scalar RSUExampleScenario.node[93].veinsmobility 	totalCO2Emission 	724.62832284352
scalar RSUExampleScenario.node[94].veinsmobility 	startTime 	282.1
scalar RSUExampleScenario.node[94].veinsmobility 	totalTime 	306.3
scalar RSUExampleScenario.node[94].veinsmobility 	stopTime 	588.5
scalar RSUExampleScenario.node[94].veinsmobility 	minSpeed 	0.24817856871895
scalar RSUExampleScenario.node[94].veinsmobility 	maxSpeed 	13.999911653416
scalar RSUExampleScenario.node[94].veinsmobility 	totalDistance 	3409.9320891929
scalar RSUExampleScenario.node[94].veinsmobility 	totalCO2Emission 	728.17379746545
scalar RSUExampleScenario.node[95].veinsmobility 	startTime 	285.1
scalar RSUExampleScenario.node[95].veinsmobility 	totalTime 	306.9
scalar RSUExampleScenario.node[95].veinsmobility 	stopTime 	592.1
scalar RSUExampleScenario.node[95].veinsmobility 	minSpeed 	0.24921340736886
scalar RSUExampleScenario.node[95].veinsmobility 	maxSpeed 	13.999852753403
scalar RSUExampleScenario.node[95].veinsmobility 	totalDistance 	3413.740294779
scalar RSUExampleScenario.node[95].veinsmobility 	totalCO2Emission 	731.78803317232
scalar RSUExampleScenario.node[96].veinsmobility 	startTime 	288.1
scalar RSUExampleScenario.node[96].veinsmobility 	totalTime 	307.6
scalar RSUExampleScenario.node[96].veinsmobility 	stopTime 	595.8
scalar RSUExampleScenario.node[96].veinsmobility 	minSpeed 	0.25405585279339
scalar RSUExampleScenario.node[96].veinsmobility 	maxSpeed 	13.99998655142
scalar RSUExampleScenario.node[96].veinsmobility 	totalDistance 	3409.560130932
scalar RSUExampleScenario.node[96].veinsmobility 	totalCO2Emission 	728.92052563027
scalar RSUExampleScenario.node[97].veinsmobility 	startTime 	291.1
scalar RSUExampleScenario.node[97].veinsmobility 	totalTime 	308.2
scalar RSUExampleScenario.node[97].veinsmobility 	stopTime 	599.4
scalar RSUExampleScenario.node[97].veinsmobility 	minSpeed 	0.25318769846763
scalar RSUExampleScenario.node[97].veinsmobility 	maxSpeed 	13.999962987765
scalar RSUExampleScenario.node[97].veinsmobility 	totalDistance 	3413.8710438536
scalar RSUExampleScenario.node[97].veinsmobility 	totalCO2Emission 	731.96266071041
scalar RSUExampleScenario.node[98].veinsmobility 	startTime 	294.1
scalar RSUExampleScenario.node[98].veinsmobility 	totalTime 	308.9
scalar RSUExampleScenario.node[98].veinsmobility 	stopTime 	603.1
scalar RSUExampleScenario.node[98].veinsmobility 	minSpeed 	0.25238302133395
scalar RSUExampleScenario.node[98].veinsmobility 	maxSpeed 	13.999827333805
scalar RSUExampleScenario.node[98].veinsmobility 	totalDistance 	3409.7107819363
scalar RSUExampleScenario.node[98].veinsmobility 	totalCO2Emission 	730.21794300463
scalar RSUExampleScenario.node[99].veinsmobility 	startTime 	297.1
scalar RSUExampleScenario.node[99].veinsmobility 	totalTime 	309.5
scalar RSUExampleScenario.node[99].veinsmobility 	stopTime 	606.7
scalar RSUExampleScenario.node[99].veinsmobility 	minSpeed 	0.24782112437161
scalar RSUExampleScenario.node[99].veinsmobility 	maxSpeed 	13.999931846368
scalar RSUExampleScenario.node[99].veinsmobility 	totalDistance 	3413.6195307558
scalar RSUExampleScenario.node[99].veinsmobility 	totalCO2Emission 	731.5307600466
scalar RSUExampleScenario.node[100].veinsmobility 	startTime 	300.1
scalar RSUExampleScenario.node[100].veinsmobility 	totalTime 	310.1
scalar RSUExampleScenario.node[100].veinsmobility 	stopTime 	610.3
scalar RSUExampleScenario.node[100].veinsmobility 	minSpeed 	0.25882908750093
scalar RSUExampleScenario.node[100].veinsmobility 	maxSpeed 	13.999781666803
scalar RSUExampleScenario.node[100].veinsmobility 	totalDistance 	3409.3743964636
scalar RSUExampleScenario.node[100].veinsmobility 	totalCO2Emission 	731.84778180299
scalar RSUExampleScenario.node[101].veinsmobility 	startTime 	303.1
scalar RSUExampleScenario.node[101].veinsmobility 	totalTime 	310.8
scalar RSUExampleScenario.node[101].veinsmobility 	stopTime 	614
scalar RSUExampleScenario.node[101].veinsmobility 	minSpeed 	0.25404852966662
scalar RSUExampleScenario.node[101].veinsmobility 	maxSpeed 	13.999815409975
scalar RSUExampleScenario.node[101].veinsmobility 	totalDistance 	3414.2196937407
scalar RSUExampleScenario.node[101].veinsmobility 	totalCO2Emission 	733.1544619802
scalar RSUExampleScenario.node[102].veinsmobility 	startTime 	306.1
scalar RSUExampleScenario.node[102].veinsmobility 	totalTime 	311.6
scalar RSUExampleScenario.node[102].veinsmobility 	stopTime 	617.8
scalar RSUExampleScenario.node[102].veinsmobility 	minSpeed 	0.24805671283742
scalar RSUExampleScenario.node[102].veinsmobility 	maxSpeed 	13.999991986612
scalar RSUExampleScenario.node[102].veinsmobility 	totalDistance 	3410.1170163951
scalar RSUExampleScenario.node[102].veinsmobility 	totalCO2Emission 	732.42011532813
scalar RSUExampleScenario.node[103].veinsmobility 	startTime 	309.1
scalar RSUExampleScenario.node[103].veinsmobility 	totalTime 	312.2
scalar RSUExampleScenario.node[103].veinsmobility 	stopTime 	621.4
scalar RSUExampleScenario.node[103].veinsmobility 	minSpeed 	0.25409325493174
scalar RSUExampleScenario.node[103].veinsmobility 	maxSpeed 	13.99982685091
scalar RSUExampleScenario.node[103].veinsmobility 	totalDistance 	3413.5145263907
scalar RSUExampleScenario.node[103].veinsmobility 	totalCO2Emission 	733.13048683801
scalar RSUExampleScenario.node[104].veinsmobility 	startTime 	312.1
scalar RSUExampleScenario.node[104].veinsmobility 	totalTime 	312.9
scalar RSUExampleScenario.node[104].veinsmobility 	stopTime 	625.1
scalar RSUExampleScenario.node[104].veinsmobility 	minSpeed 	0.25033067792421
scalar RSUExampleScenario.node[104].veinsmobility 	maxSpeed 	13.999841460448
scalar RSUExampleScenario.node[104].veinsmobility 	totalDistance 	3409.8750394443
scalar RSUExampleScenario.node[104].veinsmobility 	totalCO2Emission 	740.04398585577
scalar RSUExampleScenario.node[105].veinsmobility 	startTime 	315.1
scalar RSUExampleScenario.node[105].veinsmobility 	totalTime 	313.6
scalar RSUExampleScenario.node[105].veinsmobility 	stopTime 	628.8
scalar RSUExampleScenario.node[105].veinsmobility 	minSpeed 	0.25133891436108
scalar RSUExampleScenario.node[105].veinsmobility 	maxSpeed 	13.999993078953
scalar RSUExampleScenario.node[105].veinsmobility 	totalDistance 	3414.2014188905
scalar RSUExampleScenario.node[105].veinsmobility 	totalCO2Emission 	733.44575374472
scalar RSUExampleScenario.node[106].veinsmobility 	startTime 	318.1
scalar RSUExampleScenario.node[106].veinsmobility 	totalTime 	314.2
scalar RSUExampleScenario.node[106].veinsmobility 	stopTime 	632.4
scalar RSUExampleScenario.node[106].veinsmobility 	minSpeed 	0.25157773318351
scalar RSUExampleScenario.node[106].veinsmobility 	maxSpeed 	13.999716083498
scalar RSUExampleScenario.node[106].veinsmobility 	totalDistance 	3409.7956402258
scalar RSUExampleScenario.node[106].veinsmobility 	totalCO2Emission 	735.5503752169
scalar RSUExampleScenario.node[107].veinsmobility 	startTime 	321.1
scalar RSUExampleScenario.node[107].veinsmobility 	totalTime 	314.8
scalar RSUExampleScenario.node[107].veinsmobility 	stopTime 	636
scalar RSUExampleScenario.node[107].veinsmobility 	minSpeed 	0.25795703202556
scalar RSUExampleScenario.node[107].veinsmobility 	maxSpeed 	13.999983222578
scalar RSUExampleScenario.node[107].veinsmobility 	totalDistance 	3413.6075970394
scalar RSUExampleScenario.node[107].veinsmobility 	totalCO2Emission 	735.78242805707
scalar RSUExampleScenario.node[108].veinsmobility 	startTime 	324.1
scalar RSUExampleScenario.node[108].veinsmobility 	totalTime 	315.4
scalar RSUExampleScenario.node[108].veinsmobility 	stopTime 	639.6
scalar RSUExampleScenario.node[108].veinsmobility 	minSpeed 	0.24753664568439
scalar RSUExampleScenario.node[108].veinsmobility 	maxSpeed 	13.99995913011
scalar RSUExampleScenario.node[108].veinsmobility 	totalDistance 	3409.7261577285
scalar RSUExampleScenario.node[108].veinsmobility 	totalCO2Emission 	733.91504220497
scalar RSUExampleScenario.node[109].veinsmobility 	startTime 	327.1
scalar RSUExampleScenario.node[109].veinsmobility 	totalTime 	316.1
scalar RSUExampleScenario.node[109].veinsmobility 	stopTime 	643.3
scalar RSUExampleScenario.node[109].veinsmobility 	minSpeed 	0.25164215047495
scalar RSUExampleScenario.node[109].veinsmobility 	maxSpeed 	13.999975405599
scalar RSUExampleScenario.node[109].veinsmobility 	totalDistance 	3414.2154358371
scalar RSUExampleScenario.node[109].veinsmobility 	totalCO2Emission 	737.20478776316
scalar RSUExampleScenario.node[110].veinsmobility 	startTime 	330.1
scalar RSUExampleScenario.node[110].veinsmobility 	totalTime 	316.8
scalar RSUExampleScenario.node[110].veinsmobility 	stopTime 	647
scalar RSUExampleScenario.node[110].veinsmobility 	minSpeed 	0.24706816983735
scalar RSUExampleScenario.node[110].veinsmobility 	maxSpeed 	13.999983489844
scalar RSUExampleScenario.node[110].veinsmobility 	totalDistance 	3409.6216679669
scalar RSUExampleScenario.node[110].veinsmobility 	totalCO2Emission 	738.210546128
scalar RSUExampleScenario.node[111].veinsmobility 	startTime 	333.1
scalar RSUExampleScenario.node[111].veinsmobility 	totalTime 	317.6
scalar RSUExampleScenario.node[111].veinsmobility 	stopTime 	650.8
scalar RSUExampleScenario.node[111].veinsmobility 	minSpeed 	0.24936820135755
scalar RSUExampleScenario.node[111].veinsmobility 	maxSpeed 	13.999974308535
scalar RSUExampleScenario.node[111].veinsmobility 	totalDistance 	3414.2688036993
scalar RSUExampleScenario.node[111].veinsmobility 	totalCO2Emission 	734.59233227226
scalar RSUExampleScenario.node[112].veinsmobility 	startTime 	336.1
scalar RSUExampleScenario.node[112].veinsmobility 	totalTime 	318.3
scalar RSUExampleScenario.node[112].veinsmobility 	stopTime 	654.5
scalar RSUExampleScenario.node[112].veinsmobility 	minSpeed 	0.25671866407408
scalar RSUExampleScenario.node[112].veinsmobility 	maxSpeed 	13.999974792157
scalar RSUExampleScenario.node[112].veinsmobility 	totalDistance 	3409.6601344258
scalar RSUExampleScenario.node[112].veinsmobility 	totalCO2Emission 	738.96645754459
scalar RSUExampleScenario.node[113].veinsmobility 	startTime 	339.1
scalar RSUExampleScenario.node[113].veinsmobility 	totalTime 	319
scalar RSUExampleScenario.node[113].veinsmobility 	stopTime 	658.2
scalar RSUExampleScenario.node[113].veinsmobility 	minSpeed 	0.2472369237924
scalar RSUExampleScenario.node[113].veinsmobility 	maxSpeed 	13.99994326554
scalar RSUExampleScenario.node[113].veinsmobility 	totalDistance 	3413.8115589055
scalar RSUExampleScenario.node[113].veinsmobility 	totalCO2Emission 	737.32140840087
scalar RSUExampleScenario.node[114].veinsmobility 	startTime 	342.1
scalar RSUExampleScenario.node[114].veinsmobility 	totalTime 	319.7
scalar RSUExampleScenario.node[114].veinsmobility 	stopTime 	661.9
scalar RSUExampleScenario.node[114].veinsmobility 	minSpeed 	0.24800512338686
scalar RSUExampleScenario.node[114].veinsmobility 	maxSpeed 	13.999973548991
scalar RSUExampleScenario.node[114].veinsmobility 	totalDistance 	3410.0264923263
scalar RSUExampleScenario.node[114].veinsmobility 	totalCO2Emission 	741.94748446604
scalar RSUExampleScenario.node[115].veinsmobility 	startTime 	345.1
scalar RSUExampleScenario.node[115].veinsmobility 	totalTime 	320.4
scalar RSUExampleScenario.node[115].veinsmobility 	stopTime 	665.6
scalar RSUExampleScenario.node[115].veinsmobility 	minSpeed 	0.25714051083615
scalar RSUExampleScenario.node[115].veinsmobility 	maxSpeed 	13.999933906528
scalar RSUExampleScenario.node[115].veinsmobility 	totalDistance 	3414.2096921752
scalar RSUExampleScenario.node[115].veinsmobility 	totalCO2Emission 	742.45566129519
scalar RSUExampleScenario.node[116].veinsmobility 	startTime 	348.1
scalar RSUExampleScenario.node[116].veinsmobility 	totalTime 	321.2
scalar RSUExampleScenario.node[116].veinsmobility 	stopTime 	669.4
scalar RSUExampleScenario.node[116].veinsmobility 	minSpeed 	0.25930954703898
scalar RSUExampleScenario.node[116].veinsmobility 	maxSpeed 	13.999998402637
scalar RSUExampleScenario.node[116].veinsmobility 	totalDistance 	3409.4482697891
scalar RSUExampleScenario.node[116].veinsmobility 	totalCO2Emission 	745.19949765137
scalar RSUExampleScenario.node[117].veinsmobility 	startTime 	351.1
scalar RSUExampleScenario.node[117].veinsmobility 	totalTime 	321.9
scalar RSUExampleScenario.node[117].veinsmobility 	stopTime 	673.1
scalar RSUExampleScenario.node[117].veinsmobility 	minSpeed 	0.25449746273877
scalar RSUExampleScenario.node[117].veinsmobility 	maxSpeed 	13.999906860662
scalar RSUExampleScenario.node[117].veinsmobility 	totalDistance 	3413.8792220156
scalar RSUExampleScenario.node[117].veinsmobility 	totalCO2Emission 	744.23410929128
scalar RSUExampleScenario.node[118].veinsmobility 	startTime 	354.1
scalar RSUExampleScenario.node[118].veinsmobility 	totalTime 	322.5
scalar RSUExampleScenario.node[118].veinsmobility 	stopTime 	676.7
scalar RSUExampleScenario.node[118].veinsmobility 	minSpeed 	0.25170588052878
scalar RSUExampleScenario.node[118].veinsmobility 	maxSpeed 	13.999917046898
scalar RSUExampleScenario.node[118].veinsmobility 	totalDistance 	3409.7210289279
scalar RSUExampleScenario.node[118].veinsmobility 	totalCO2Emission 	744.8293150065
scalar RSUExampleScenario.node[119].veinsmobility 	startTime 	357.1
scalar RSUExampleScenario.node[119].veinsmobility 	totalTime 	323.1
scalar RSUExampleScenario.node[119].veinsmobility 	stopTime 	680.3
scalar RSUExampleScenario.node[119].veinsmobility 	minSpeed 	0.2470681782912
scalar RSUExampleScenario.node[119].veinsmobility 	maxSpeed 	13.999972501567
scalar RSUExampleScenario.node[119].veinsmobility 	totalDistance 	3409.4746386418
scalar RSUExampleScenario.node[119].veinsmobility 	totalCO2Emission 	745.44678447013
scalar RSUExampleScenario.node[120].veinsmobility 	startTime 	360.1
scalar RSUExampleScenario.node[120].veinsmobility 	totalTime 	323.8
scalar RSUExampleScenario.node[120].veinsmobility 	stopTime 	684
scalar RSUExampleScenario.node[120].veinsmobility 	minSpeed 	0.24843235267419
scalar RSUExampleScenario.node[120].veinsmobility 	maxSpeed 	13.999900051849
scalar RSUExampleScenario.node[120].veinsmobility 	totalDistance 	3413.8587439453
scalar RSUExampleScenario.node[120].veinsmobility 	totalCO2Emission 	745.15851096479
scalar RSUExampleScenario.node[121].veinsmobility 	startTime 	363.1
scalar RSUExampleScenario.node[121].veinsmobility 	totalTime 	324.5
scalar RSUExampleScenario.node[121].veinsmobility 	stopTime 	687.7
scalar RSUExampleScenario.node[121].veinsmobility 	minSpeed 	0.25914640957466
scalar RSUExampleScenario.node[121].veinsmobility 	maxSpeed 	13.999991720556
scalar RSUExampleScenario.node[121].veinsmobility 	totalDistance 	3409.7217947235
scalar RSUExampleScenario.node[121].veinsmobility 	totalCO2Emission 	741.46361294478
scalar RSUExampleScenario.node[122].veinsmobility 	startTime 	366.1
scalar RSUExampleScenario.node[122].veinsmobility 	totalTime 	325.2
scalar RSUExampleScenario.node[122].veinsmobility 	stopTime 	691.4
scalar RSUExampleScenario.node[122].veinsmobility 	minSpeed 	0.25716789780417
scalar RSUExampleScenario.node[122].veinsmobility 	maxSpeed 	13.999937972759
scalar RSUExampleScenario.node[122].veinsmobility 	totalDistance 	3410.1398480283
scalar RSUExampleScenario.node[122].veinsmobility 	totalCO2Emission 	749.48506959877
scalar RSUExampleScenario.node[123].veinsmobility 	startTime 	369.1
scalar RSUExampleScenario.node[123].veinsmobility 	totalTime 	325.9
scalar RSUExampleScenario.node[123].veinsmobility 	stopTime 	695.1
scalar RSUExampleScenario.node[123].veinsmobility 	minSpeed 	0.25519328834862
scalar RSUExampleScenario.node[123].veinsmobility 	maxSpeed 	13.999947788212
scalar RSUExampleScenario.node[123].veinsmobility 	totalDistance 	3413.5830524177
scalar RSUExampleScenario.node[123].veinsmobility 	totalCO2Emission 	747.79774100377
scalar RSUExampleScenario.node[124].veinsmobility 	startTime 	372.1
scalar RSUExampleScenario.node[124].veinsmobility 	totalTime 	326.6
scalar RSUExampleScenario.node[124].veinsmobility 	stopTime 	698.8
scalar RSUExampleScenario.node[124].veinsmobility 	minSpeed 	0.25562606800627
scalar RSUExampleScenario.node[124].veinsmobility 	maxSpeed 	13.999893705742
scalar RSUExampleScenario.node[124].veinsmobility 	totalDistance 	3409.5608229912
scalar RSUExampleScenario.node[124].veinsmobility 	totalCO2Emission 	747.31464869025
scalar RSUExampleScenario.node[125].veinsmobility 	startTime 	375.1
scalar RSUExampleScenario.node[125].veinsmobility 	totalTime 	327.3
scalar RSUExampleScenario.node[125].veinsmobility 	stopTime 	702.5
scalar RSUExampleScenario.node[125].veinsmobility 	minSpeed 	0.25512974017207
scalar RSUExampleScenario.node[125].veinsmobility 	maxSpeed 	13.999995812092
scalar RSUExampleScenario.node[125].veinsmobility 	totalDistance 	3414.0975302056
scalar RSUExampleScenario.node[125].veinsmobility 	totalCO2Emission 	747.39767413803
scalar RSUExampleScenario.node[126].veinsmobility 	startTime 	378.1
scalar RSUExampleScenario.node[126].veinsmobility 	totalTime 	327.9
scalar RSUExampleScenario.node[126].veinsmobility 	stopTime 	706.1
scalar RSUExampleScenario.node[126].veinsmobility 	minSpeed 	0.25729101068177
scalar RSUExampleScenario.node[126].veinsmobility 	maxSpeed 	13.999762009322
scalar RSUExampleScenario.node[126].veinsmobility 	totalDistance 	3409.6547285165
scalar RSUExampleScenario.node[126].veinsmobility 	totalCO2Emission 	746.81637005419
scalar RSUExampleScenario.node[127].veinsmobility 	startTime 	381.1
scalar RSUExampleScenario.node[127].veinsmobility 	totalTime 	328.6
scalar RSUExampleScenario.node[127].veinsmobility 	stopTime 	709.8
scalar RSUExampleScenario.node[127].veinsmobility 	minSpeed 	0.24851370260818
scalar RSUExampleScenario.node[127].veinsmobility 	maxSpeed 	13.999951341189
scalar RSUExampleScenario.node[127].veinsmobility 	totalDistance 	3414.0818075263
scalar RSUExampleScenario.node[127].veinsmobility 	totalCO2Emission 	752.9323203037
scalar RSUExampleScenario.node[128].veinsmobility 	startTime 	384.1
scalar RSUExampleScenario.node[128].veinsmobility 	totalTime 	329.3
scalar RSUExampleScenario.node[128].veinsmobility 	stopTime 	713.5
scalar RSUExampleScenario.node[128].veinsmobility 	minSpeed 	0.25485952562024
scalar RSUExampleScenario.node[128].veinsmobility 	maxSpeed 	13.999987350919
scalar RSUExampleScenario.node[128].veinsmobility 	totalDistance 	3409.8378218897
scalar RSUExampleScenario.node[128].veinsmobility 	totalCO2Emission 	749.98016137874
scalar RSUExampleScenario.node[129].veinsmobility 	startTime 	387.1
scalar RSUExampleScenario.node[129].veinsmobility 	totalTime 	330
scalar RSUExampleScenario.node[129].veinsmobility 	stopTime 	717.2
scalar RSUExampleScenario.node[129].veinsmobility 	minSpeed 	0.25529526044102
scalar RSUExampleScenario.node[129].veinsmobility 	maxSpeed 	13.999970857834
scalar RSUExampleScenario.node[129].veinsmobility 	totalDistance 	3413.9732996976
scalar RSUExampleScenario.node[129].veinsmobility 	totalCO2Emission 	751.1190952125
scalar RSUExampleScenario.node[130].veinsmobility 	startTime 	390.1
scalar RSUExampleScenario.node[130].veinsmobility 	totalTime 	330.7
scalar RSUExampleScenario.node[130].veinsmobility 	stopTime 	720.9
scalar RSUExampleScenario.node[130].veinsmobility 	minSpeed 	0.25973291165871
scalar RSUExampleScenario.node[130].veinsmobility 	maxSpeed 	13.999713292851
scalar RSUExampleScenario.node[130].veinsmobility 	totalDistance 	3409.6881611653
scalar RSUExampleScenario.node[130].veinsmobility 	totalCO2Emission 	755.3506668301
scalar RSUExampleScenario.node[131].veinsmobility 	startTime 	393.1
scalar RSUExampleScenario.node[131].veinsmobility 	totalTime 	331.4
scalar RSUExampleScenario.node[131].veinsmobility 	stopTime 	724.6
scalar RSUExampleScenario.node[131].veinsmobility 	minSpeed 	0.25223325102241
scalar RSUExampleScenario.node[131].veinsmobility 	maxSpeed 	13.99998665754
scalar RSUExampleScenario.node[131].veinsmobility 	totalDistance 	3414.1938663444
scalar RSUExampleScenario.node[131].veinsmobility 	totalCO2Emission 	753.02885165848
scalar RSUExampleScenario.node[132].veinsmobility 	startTime 	396.1
scalar RSUExampleScenario.node[132].veinsmobility 	totalTime 	332.1
scalar RSUExampleScenario.node[132].veinsmobility 	stopTime 	728.3
scalar RSUExampleScenario.node[132].veinsmobility 	minSpeed 	0.25589609131287
scalar RSUExampleScenario.node[132].veinsmobility 	maxSpeed 	13.999735454856
scalar RSUExampleScenario.node[132].veinsmobility 	totalDistance 	3409.5923425012
scalar RSUExampleScenario.node[132].veinsmobility 	totalCO2Emission 	750.81011238896
scalar RSUExampleScenario.node[133].veinsmobility 	startTime 	399.1
scalar RSUExampleScenario.node[133].veinsmobility 	totalTime 	332.9
scalar RSUExampleScenario.node[133].veinsmobility 	stopTime 	732.1
scalar RSUExampleScenario.node[133].veinsmobility 	minSpeed 	0.25590321435314
scalar RSUExampleScenario.node[133].veinsmobility 	maxSpeed 	13.999898643419
scalar RSUExampleScenario.node[133].veinsmobility 	totalDistance 	3413.9909981047
scalar RSUExampleScenario.node[133].veinsmobility 	totalCO2Emission 	752.80369237011
scalar RSUExampleScenario.node[134].veinsmobility 	startTime 	402.1
scalar RSUExampleScenario.node[134].veinsmobility 	totalTime 	333.6
scalar RSUExampleScenario.node[134].veinsmobility 	stopTime 	735.8
scalar RSUExampleScenario.node[134].veinsmobility 	minSpeed 	0.25187395577575
scalar RSUExampleScenario.node[134].veinsmobility 	maxSpeed 	13.999959988359
scalar RSUExampleScenario.node[134].veinsmobility 	totalDistance 	3409.7754013342
scalar RSUExampleScenario.node[134].veinsmobility 	totalCO2Emission 	750.36446980957
scalar RSUExampleScenario.node[135].veinsmobility 	startTime 	405.1
scalar RSUExampleScenario.node[135].veinsmobility 	totalTime 	334.3
scalar RSUExampleScenario.node[135].veinsmobility 	stopTime 	739.5
scalar RSUExampleScenario.node[135].veinsmobility 	minSpeed 	0.25826637517731
scalar RSUExampleScenario.node[135].veinsmobility 	maxSpeed 	13.999872264417
scalar RSUExampleScenario.node[135].veinsmobility 	totalDistance 	3414.0141749183
scalar RSUExampleScenario.node[135].veinsmobility 	totalCO2Emission 	760.09794877754
scalar RSUExampleScenario.node[136].veinsmobility 	startTime 	408.1
scalar RSUExampleScenario.node[136].veinsmobility 	totalTime 	335
scalar RSUExampleScenario.node[136].veinsmobility 	stopTime 	743.2
scalar RSUExampleScenario.node[136].veinsmobility 	minSpeed 	0.24877391521074
scalar RSUExampleScenario.node[136].veinsmobility 	maxSpeed 	13.999970923697
scalar RSUExampleScenario.node[136].veinsmobility 	totalDistance 	3409.9272072447
scalar RSUExampleScenario.node[136].veinsmobility 	totalCO2Emission 	759.74755464348
scalar RSUExampleScenario.node[137].veinsmobility 	startTime 	411.1
scalar RSUExampleScenario.node[137].veinsmobility 	totalTime 	335.7
scalar RSUExampleScenario.node[137].veinsmobility 	stopTime 	746.9
scalar RSUExampleScenario.node[137].veinsmobility 	minSpeed 	0.25140898567857
scalar RSUExampleScenario.node[137].veinsmobility 	maxSpeed 	13.999867484316
scalar RSUExampleScenario.node[137].veinsmobility 	totalDistance 	3413.9151491357
scalar RSUExampleScenario.node[137].veinsmobility 	totalCO2Emission 	757.17892142531
scalar RSUExampleScenario.node[138].veinsmobility 	startTime 	414.1
scalar RSUExampleScenario.node[138].veinsmobility 	totalTime 	336.3
scalar RSUExampleScenario.node[138].veinsmobility 	stopTime 	750.5
scalar RSUExampleScenario.node[138].veinsmobility 	minSpeed 	0.25273830248602
scalar RSUExampleScenario.node[138].veinsmobility 	maxSpeed 	13.999942851898
scalar RSUExampleScenario.node[138].veinsmobility 	totalDistance 	3409.6336293901
scalar RSUExampleScenario.node[138].veinsmobility 	totalCO2Emission 	762.05912154933
scalar RSUExampleScenario.node[139].veinsmobility 	startTime 	417.1
scalar RSUExampleScenario.node[139].veinsmobility 	totalTime 	337
scalar RSUExampleScenario.node[139].veinsmobility 	stopTime 	754.2
scalar RSUExampleScenario.node[139].veinsmobility 	minSpeed 	0.25408258298249
scalar RSUExampleScenario.node[139].veinsmobility 	maxSpeed 	13.999943298895
scalar RSUExampleScenario.node[139].veinsmobility 	totalDistance 	3413.99149362
scalar RSUExampleScenario.node[139].veinsmobility 	totalCO2Emission 	758.52288026029
scalar RSUExampleScenario.node[140].veinsmobility 	startTime 	420.1
scalar RSUExampleScenario.node[140].veinsmobility 	totalTime 	337.7
scalar RSUExampleScenario.node[140].veinsmobility 	stopTime 	757.9
scalar RSUExampleScenario.node[140].veinsmobility 	minSpeed 	0.25923380007199
scalar RSUExampleScenario.node[140].veinsmobility 	maxSpeed 	13.999902168459
scalar RSUExampleScenario.node[140].veinsmobility 	totalDistance 	3410.1370987544
scalar RSUExampleScenario.node[140].veinsmobility 	totalCO2Emission 	759.94984752149
scalar RSUExampleScenario.node[141].veinsmobility 	startTime 	423.1
scalar RSUExampleScenario.node[141].veinsmobility 	totalTime 	338.4
scalar RSUExampleScenario.node[141].veinsmobility 	stopTime 	761.6
scalar RSUExampleScenario.node[141].veinsmobility 	minSpeed 	0.2577700875632
scalar RSUExampleScenario.node[141].veinsmobility 	maxSpeed 	13.999993772907
scalar RSUExampleScenario.node[141].veinsmobility 	totalDistance 	3413.8997346009
scalar RSUExampleScenario.node[141].veinsmobility 	totalCO2Emission 	763.80561866288
scalar RSUExampleScenario.node[142].veinsmobility 	startTime 	426.1
scalar RSUExampleScenario.node[142].veinsmobility 	totalTime 	339.1
scalar RSUExampleScenario.node[142].veinsmobility 	stopTime 	765.3
scalar RSUExampleScenario.node[142].veinsmobility 	minSpeed 	0.25046376526775
scalar RSUExampleScenario.node[142].veinsmobility 	maxSpeed 	13.999993607311
scalar RSUExampleScenario.node[142].veinsmobility 	totalDistance 	3409.6395210149
scalar RSUExampleScenario.node[142].veinsmobility 	totalCO2Emission 	761.28203089717
scalar RSUExampleScenario.node[143].veinsmobility 	startTime 	429.1
scalar RSUExampleScenario.node[143].veinsmobility 	totalTime 	339.7
scalar RSUExampleScenario.node[143].veinsmobility 	stopTime 	768.9
scalar RSUExampleScenario.node[143].veinsmobility 	minSpeed 	0.25002594081196
scalar RSUExampleScenario.node[143].veinsmobility 	maxSpeed 	13.999984698354
scalar RSUExampleScenario.node[143].veinsmobility 	totalDistance 	3413.6148711374
scalar RSUExampleScenario.node[143].veinsmobility 	totalCO2Emission 	764.4850701147
scalar RSUExampleScenario.node[144].veinsmobility 	startTime 	432.1
scalar RSUExampleScenario.node[144].veinsmobility 	totalTime 	340.3
scalar RSUExampleScenario.node[144].veinsmobility 	stopTime 	772.5
scalar RSUExampleScenario.node[144].veinsmobility 	minSpeed 	0.25043373057758
scalar RSUExampleScenario.node[144].veinsmobility 	maxSpeed 	13.999832050223
scalar RSUExampleScenario.node[144].veinsmobility 	totalDistance 	3409.9976690205
scalar RSUExampleScenario.node[144].veinsmobility 	totalCO2Emission 	764.3943731243
scalar RSUExampleScenario.node[145].veinsmobility 	startTime 	435.1
scalar RSUExampleScenario.node[145].veinsmobility 	totalTime 	340.9
scalar RSUExampleScenario.node[145].veinsmobility 	stopTime 	776.1
scalar RSUExampleScenario.node[145].veinsmobility 	minSpeed 	0.24856835864438
scalar RSUExampleScenario.node[145].veinsmobility 	maxSpeed 	13.999776122586
scalar RSUExampleScenario.node[145].veinsmobility 	totalDistance 	3413.8810163752
scalar RSUExampleScenario.node[145].veinsmobility 	totalCO2Emission 	766.74389989919
scalar RSUExampleScenario.node[146].veinsmobility 	startTime 	438.1
scalar RSUExampleScenario.node[146].veinsmobility 	totalTime 	341.6
scalar RSUExampleScenario.node[146].veinsmobility 	stopTime 	779.8
scalar RSUExampleScenario.node[146].veinsmobility 	minSpeed 	0.25783624543319
scalar RSUExampleScenario.node[146].veinsmobility 	maxSpeed 	13.999783373857
scalar RSUExampleScenario.node[146].veinsmobility 	totalDistance 	3410.3070658322
scalar RSUExampleScenario.node[146].veinsmobility 	totalCO2Emission 	761.96237730364
scalar RSUExampleScenario.node[147].veinsmobility 	startTime 	441.1
scalar RSUExampleScenario.node[147].veinsmobility 	totalTime 	342.3
scalar RSUExampleScenario.node[147].veinsmobility 	stopTime 	783.5
scalar RSUExampleScenario.node[147].veinsmobility 	minSpeed 	0.25112536974694
scalar RSUExampleScenario.node[147].veinsmobility 	maxSpeed 	13.999995338519
scalar RSUExampleScenario.node[147].veinsmobility 	totalDistance 	3414.2451514201
scalar RSUExampleScenario.node[147].veinsmobility 	totalCO2Emission 	764.55393852551
scalar RSUExampleScenario.node[148].veinsmobility 	startTime 	444.1
scalar RSUExampleScenario.node[148].veinsmobility 	totalTime 	343
scalar RSUExampleScenario.node[148].veinsmobility 	stopTime 	787.2
scalar RSUExampleScenario.node[148].veinsmobility 	minSpeed 	0.25932810720312
scalar RSUExampleScenario.node[148].veinsmobility 	maxSpeed 	13.999928632816
scalar RSUExampleScenario.node[148].veinsmobility 	totalDistance 	3409.9486455983
scalar RSUExampleScenario.node[148].veinsmobility 	totalCO2Emission 	767.41358416976
scalar RSUExampleScenario.node[149].veinsmobility 	startTime 	447.1
scalar RSUExampleScenario.node[149].veinsmobility 	totalTime 	343.6
scalar RSUExampleScenario.node[149].veinsmobility 	stopTime 	790.8
scalar RSUExampleScenario.node[149].veinsmobility 	minSpeed 	0.25748356998526
scalar RSUExampleScenario.node[149].veinsmobility 	maxSpeed 	13.999839285542
scalar RSUExampleScenario.node[149].veinsmobility 	totalDistance 	3413.8316384221
scalar RSUExampleScenario.node[149].veinsmobility 	totalCO2Emission 	765.52678553309
scalar RSUExampleScenario.node[150].veinsmobility 	startTime 	450.1
scalar RSUExampleScenario.node[150].veinsmobility 	totalTime 	344.3
scalar RSUExampleScenario.node[150].veinsmobility 	stopTime 	794.5
scalar RSUExampleScenario.node[150].veinsmobility 	minSpeed 	0.24773024389404
scalar RSUExampleScenario.node[150].veinsmobility 	maxSpeed 	13.999758538068
scalar RSUExampleScenario.node[150].veinsmobility 	totalDistance 	3409.8126785037
scalar RSUExampleScenario.node[150].veinsmobility 	totalCO2Emission 	769.9557850844
scalar RSUExampleScenario.node[151].veinsmobility 	startTime 	453.1
scalar RSUExampleScenario.node[151].veinsmobility 	totalTime 	345
scalar RSUExampleScenario.node[151].veinsmobility 	stopTime 	798.2
scalar RSUExampleScenario.node[151].veinsmobility 	minSpeed 	0.24736978146248
scalar RSUExampleScenario.node[151].veinsmobility 	maxSpeed 	13.999993543264
scalar RSUExampleScenario.node[151].veinsmobility 	totalDistance 	3414.2459622242
scalar RSUExampleScenario.node[151].veinsmobility 	totalCO2Emission 	766.44411503167
scalar RSUExampleScenario.node[152].veinsmobility 	startTime 	456.1
scalar RSUExampleScenario.node[152].veinsmobility 	totalTime 	345.8
scalar RSUExampleScenario.node[152].veinsmobility 	stopTime 	802
scalar RSUExampleScenario.node[152].veinsmobility 	minSpeed 	0.25716565283993
scalar RSUExampleScenario.node[152].veinsmobility 	maxSpeed 	13.999878443142
scalar RSUExampleScenario.node[152].veinsmobility 	totalDistance 	3410.2817427283
[...]
scalar RSUExampleScenario.node[628].veinsmobility 	totalCO2Emission 	322.79020151572
scalar RSUExampleScenario.node[629].veinsmobility 	startTime 	1887.1
scalar RSUExampleScenario.node[629].veinsmobility 	totalTime 	112.8
scalar RSUExampleScenario.node[629].veinsmobility 	stopTime 	2000
scalar RSUExampleScenario.node[629].veinsmobility 	minSpeed 	0.25051270635449
scalar RSUExampleScenario.node[629].veinsmobility 	maxSpeed 	13.999978675479
scalar RSUExampleScenario.node[629].veinsmobility 	totalDistance 	1361.8212675713
scalar RSUExampleScenario.node[629].veinsmobility 	totalCO2Emission 	317.7332674978
scalar RSUExampleScenario.node[630].veinsmobility 	startTime 	1890.1
scalar RSUExampleScenario.node[630].veinsmobility 	totalTime 	109.8
scalar RSUExampleScenario.node[630].veinsmobility 	stopTime 	2000
scalar RSUExampleScenario.node[630].veinsmobility 	minSpeed 	0.25762148569874
scalar RSUExampleScenario.node[630].veinsmobility 	maxSpeed 	13.999717874848
scalar RSUExampleScenario.node[630].veinsmobility 	totalDistance 	1322.2379204041
scalar RSUExampleScenario.node[630].veinsmobility 	totalCO2Emission 	310.847189904
scalar RSUExampleScenario.node[631].veinsmobility 	startTime 	1893.1
scalar RSUExampleScenario.node[631].veinsmobility 	totalTime 	106.8
scalar RSUExampleScenario.node[631].veinsmobility 	stopTime 	2000
scalar RSUExampleScenario.node[631].veinsmobility 	minSpeed 	0.25862974881986
scalar RSUExampleScenario.node[631].veinsmobility 	maxSpeed 	13.999099586478
scalar RSUExampleScenario.node[631].veinsmobility 	totalDistance 	1279.3898630416
scalar RSUExampleScenario.node[631].veinsmobility 	totalCO2Emission 	305.6912051812
scalar RSUExampleScenario.node[632].veinsmobility 	startTime 	1896.1
scalar RSUExampleScenario.node[632].veinsmobility 	totalTime 	103.8
scalar RSUExampleScenario.node[632].veinsmobility 	stopTime 	2000
scalar RSUExampleScenario.node[632].veinsmobility 	minSpeed 	0.25061359238322
scalar RSUExampleScenario.node[632].veinsmobility 	maxSpeed 	13.999965228867
scalar RSUExampleScenario.node[632].veinsmobility 	totalDistance 	1237.5741561704
scalar RSUExampleScenario.node[632].veinsmobility 	totalCO2Emission 	294.58359798025
scalar RSUExampleScenario.node[633].veinsmobility 	startTime 	1899.1
scalar RSUExampleScenario.node[633].veinsmobility 	totalTime 	100.8
scalar RSUExampleScenario.node[633].veinsmobility 	stopTime 	2000
scalar RSUExampleScenario.node[633].veinsmobility 	minSpeed 	0.253542535885
scalar RSUExampleScenario.node[633].veinsmobility 	maxSpeed 	13.999647143474
scalar RSUExampleScenario.node[633].veinsmobility 	totalDistance 	1193.7917339783
scalar RSUExampleScenario.node[633].veinsmobility 	totalCO2Emission 	287.86261210528
scalar RSUExampleScenario.node[634].veinsmobility 	startTime 	1902.1
scalar RSUExampleScenario.node[634].veinsmobility 	totalTime 	97.8
scalar RSUExampleScenario.node[634].veinsmobility 	stopTime 	2000
scalar RSUExampleScenario.node[634].veinsmobility 	minSpeed 	0.24823628292629
scalar RSUExampleScenario.node[634].veinsmobility 	maxSpeed 	13.999970213156
scalar RSUExampleScenario.node[634].veinsmobility 	totalDistance 	1153.0495366776
scalar RSUExampleScenario.node[634].veinsmobility 	totalCO2Emission 	279.92184952267
scalar RSUExampleScenario.node[635].veinsmobility 	startTime 	1905.1
scalar RSUExampleScenario.node[635].veinsmobility 	totalTime 	94.8
scalar RSUExampleScenario.node[635].veinsmobility 	stopTime 	2000
scalar RSUExampleScenario.node[635].veinsmobility 	minSpeed 	0.25252775670262
scalar RSUExampleScenario.node[635].veinsmobility 	maxSpeed 	13.998734956523
scalar RSUExampleScenario.node[635].veinsmobility 	totalDistance 	1111.646871384
scalar RSUExampleScenario.node[635].veinsmobility 	totalCO2Emission 	274.69951541582
scalar RSUExampleScenario.node[636].veinsmobility 	startTime 	1908.1
scalar RSUExampleScenario.node[636].veinsmobility 	totalTime 	91.8
scalar RSUExampleScenario.node[636].veinsmobility 	stopTime 	2000
scalar RSUExampleScenario.node[636].veinsmobility 	minSpeed 	0.25633259549434
scalar RSUExampleScenario.node[636].veinsmobility 	maxSpeed 	13.999573696668
scalar RSUExampleScenario.node[636].veinsmobility 	totalDistance 	1067.8491260543
scalar RSUExampleScenario.node[636].veinsmobility 	totalCO2Emission 	268.06784635037
scalar RSUExampleScenario.node[637].veinsmobility 	startTime 	1911.1
scalar RSUExampleScenario.node[637].veinsmobility 	totalTime 	88.8
scalar RSUExampleScenario.node[637].veinsmobility 	stopTime 	2000
scalar RSUExampleScenario.node[637].veinsmobility 	minSpeed 	0.2571767784548
scalar RSUExampleScenario.node[637].veinsmobility 	maxSpeed 	13.999754063128
scalar RSUExampleScenario.node[637].veinsmobility 	totalDistance 	1028.0052676329
scalar RSUExampleScenario.node[637].veinsmobility 	totalCO2Emission 	261.90760441855
scalar RSUExampleScenario.node[638].veinsmobility 	startTime 	1914.1
scalar RSUExampleScenario.node[638].veinsmobility 	totalTime 	85.8
scalar RSUExampleScenario.node[638].veinsmobility 	stopTime 	2000
scalar RSUExampleScenario.node[638].veinsmobility 	minSpeed 	0.25288268820196
scalar RSUExampleScenario.node[638].veinsmobility 	maxSpeed 	13.999726593269
scalar RSUExampleScenario.node[638].veinsmobility 	totalDistance 	985.86454120798
scalar RSUExampleScenario.node[638].veinsmobility 	totalCO2Emission 	253.13109016881
scalar RSUExampleScenario.node[639].veinsmobility 	startTime 	1917.1
scalar RSUExampleScenario.node[639].veinsmobility 	totalTime 	82.8
scalar RSUExampleScenario.node[639].veinsmobility 	stopTime 	2000
scalar RSUExampleScenario.node[639].veinsmobility 	minSpeed 	0.25692031918513
scalar RSUExampleScenario.node[639].veinsmobility 	maxSpeed 	13.99991293702
scalar RSUExampleScenario.node[639].veinsmobility 	totalDistance 	954.36649392536
scalar RSUExampleScenario.node[639].veinsmobility 	totalCO2Emission 	232.97720319532
scalar RSUExampleScenario.node[640].veinsmobility 	startTime 	1920.1
scalar RSUExampleScenario.node[640].veinsmobility 	totalTime 	79.8
scalar RSUExampleScenario.node[640].veinsmobility 	stopTime 	2000
scalar RSUExampleScenario.node[640].veinsmobility 	minSpeed 	0.25789684371627
scalar RSUExampleScenario.node[640].veinsmobility 	maxSpeed 	13.999335044816
scalar RSUExampleScenario.node[640].veinsmobility 	totalDistance 	937.51299872422
scalar RSUExampleScenario.node[640].veinsmobility 	totalCO2Emission 	221.79499443797
scalar RSUExampleScenario.node[641].veinsmobility 	startTime 	1923.1
scalar RSUExampleScenario.node[641].veinsmobility 	totalTime 	76.8
scalar RSUExampleScenario.node[641].veinsmobility 	stopTime 	2000
scalar RSUExampleScenario.node[641].veinsmobility 	minSpeed 	0.24708398471959
scalar RSUExampleScenario.node[641].veinsmobility 	maxSpeed 	13.999992272977
scalar RSUExampleScenario.node[641].veinsmobility 	totalDistance 	913.39584874676
scalar RSUExampleScenario.node[641].veinsmobility 	totalCO2Emission 	220.22764957935
scalar RSUExampleScenario.node[642].veinsmobility 	startTime 	1926.1
scalar RSUExampleScenario.node[642].veinsmobility 	totalTime 	73.8
scalar RSUExampleScenario.node[642].veinsmobility 	stopTime 	2000
scalar RSUExampleScenario.node[642].veinsmobility 	minSpeed 	0.25572993138153
scalar RSUExampleScenario.node[642].veinsmobility 	maxSpeed 	13.999940886265
scalar RSUExampleScenario.node[642].veinsmobility 	totalDistance 	873.1293618717
scalar RSUExampleScenario.node[642].veinsmobility 	totalCO2Emission 	214.91436382083
scalar RSUExampleScenario.node[643].veinsmobility 	startTime 	1929.1
scalar RSUExampleScenario.node[643].veinsmobility 	totalTime 	70.8
scalar RSUExampleScenario.node[643].veinsmobility 	stopTime 	2000
scalar RSUExampleScenario.node[643].veinsmobility 	minSpeed 	0.25044485383155
scalar RSUExampleScenario.node[643].veinsmobility 	maxSpeed 	13.998778995562
scalar RSUExampleScenario.node[643].veinsmobility 	totalDistance 	831.69729308291
scalar RSUExampleScenario.node[643].veinsmobility 	totalCO2Emission 	205.93485735392
scalar RSUExampleScenario.node[644].veinsmobility 	startTime 	1932.1
scalar RSUExampleScenario.node[644].veinsmobility 	totalTime 	67.8
scalar RSUExampleScenario.node[644].veinsmobility 	stopTime 	2000
scalar RSUExampleScenario.node[644].veinsmobility 	minSpeed 	0.25428432837385
scalar RSUExampleScenario.node[644].veinsmobility 	maxSpeed 	13.999634329674
scalar RSUExampleScenario.node[644].veinsmobility 	totalDistance 	790.09469665933
scalar RSUExampleScenario.node[644].veinsmobility 	totalCO2Emission 	199.57929194675
scalar RSUExampleScenario.node[645].veinsmobility 	startTime 	1935.1
scalar RSUExampleScenario.node[645].veinsmobility 	totalTime 	64.8
scalar RSUExampleScenario.node[645].veinsmobility 	stopTime 	2000
scalar RSUExampleScenario.node[645].veinsmobility 	minSpeed 	0.24795479394705
scalar RSUExampleScenario.node[645].veinsmobility 	maxSpeed 	13.999947008903
scalar RSUExampleScenario.node[645].veinsmobility 	totalDistance 	746.92043818094
scalar RSUExampleScenario.node[645].veinsmobility 	totalCO2Emission 	194.51016848428
scalar RSUExampleScenario.node[646].veinsmobility 	startTime 	1938.1
scalar RSUExampleScenario.node[646].veinsmobility 	totalTime 	61.8
scalar RSUExampleScenario.node[646].veinsmobility 	stopTime 	2000
scalar RSUExampleScenario.node[646].veinsmobility 	minSpeed 	0.25365573768993
scalar RSUExampleScenario.node[646].veinsmobility 	maxSpeed 	13.999887247402
scalar RSUExampleScenario.node[646].veinsmobility 	totalDistance 	705.39350157141
scalar RSUExampleScenario.node[646].veinsmobility 	totalCO2Emission 	186.07364861904
scalar RSUExampleScenario.node[647].veinsmobility 	startTime 	1941.1
scalar RSUExampleScenario.node[647].veinsmobility 	totalTime 	58.8
scalar RSUExampleScenario.node[647].veinsmobility 	stopTime 	2000
scalar RSUExampleScenario.node[647].veinsmobility 	minSpeed 	0.25780807662196
scalar RSUExampleScenario.node[647].veinsmobility 	maxSpeed 	13.999748890724
scalar RSUExampleScenario.node[647].veinsmobility 	totalDistance 	665.53088023352
scalar RSUExampleScenario.node[647].veinsmobility 	totalCO2Emission 	176.88053946384
scalar RSUExampleScenario.node[648].veinsmobility 	startTime 	1944.1
scalar RSUExampleScenario.node[648].veinsmobility 	totalTime 	55.8
scalar RSUExampleScenario.node[648].veinsmobility 	stopTime 	2000
scalar RSUExampleScenario.node[648].veinsmobility 	minSpeed 	0.24991526178294
scalar RSUExampleScenario.node[648].veinsmobility 	maxSpeed 	13.999365368614
scalar RSUExampleScenario.node[648].veinsmobility 	totalDistance 	622.17122383417
scalar RSUExampleScenario.node[648].veinsmobility 	totalCO2Emission 	171.18977587867
scalar RSUExampleScenario.node[649].veinsmobility 	startTime 	1947.1
scalar RSUExampleScenario.node[649].veinsmobility 	totalTime 	52.8
scalar RSUExampleScenario.node[649].veinsmobility 	stopTime 	2000
scalar RSUExampleScenario.node[649].veinsmobility 	minSpeed 	0.25744421098544
scalar RSUExampleScenario.node[649].veinsmobility 	maxSpeed 	13.999659444867
scalar RSUExampleScenario.node[649].veinsmobility 	totalDistance 	581.28612635923
scalar RSUExampleScenario.node[649].veinsmobility 	totalCO2Emission 	163.90985081425
scalar RSUExampleScenario.node[650].veinsmobility 	startTime 	1950.1
scalar RSUExampleScenario.node[650].veinsmobility 	totalTime 	49.8
scalar RSUExampleScenario.node[650].veinsmobility 	stopTime 	2000
scalar RSUExampleScenario.node[650].veinsmobility 	minSpeed 	0.25544947322085
scalar RSUExampleScenario.node[650].veinsmobility 	maxSpeed 	13.999390846204
scalar RSUExampleScenario.node[650].veinsmobility 	totalDistance 	538.92127747294
scalar RSUExampleScenario.node[650].veinsmobility 	totalCO2Emission 	156.81053444548
scalar RSUExampleScenario.node[651].veinsmobility 	startTime 	1953.1
scalar RSUExampleScenario.node[651].veinsmobility 	totalTime 	46.8
scalar RSUExampleScenario.node[651].veinsmobility 	stopTime 	2000
scalar RSUExampleScenario.node[651].veinsmobility 	minSpeed 	0.25449048786936
scalar RSUExampleScenario.node[651].veinsmobility 	maxSpeed 	13.997659444925
scalar RSUExampleScenario.node[651].veinsmobility 	totalDistance 	496.97183899426
scalar RSUExampleScenario.node[651].veinsmobility 	totalCO2Emission 	150.63890167964
scalar RSUExampleScenario.node[652].veinsmobility 	startTime 	1956.1
scalar RSUExampleScenario.node[652].veinsmobility 	totalTime 	43.8
scalar RSUExampleScenario.node[652].veinsmobility 	stopTime 	2000
scalar RSUExampleScenario.node[652].veinsmobility 	minSpeed 	0.25626013467996
scalar RSUExampleScenario.node[652].veinsmobility 	maxSpeed 	13.997816993957
scalar RSUExampleScenario.node[652].veinsmobility 	totalDistance 	455.81602037761
scalar RSUExampleScenario.node[652].veinsmobility 	totalCO2Emission 	143.30910247665
scalar RSUExampleScenario.node[653].veinsmobility 	startTime 	1959.1
scalar RSUExampleScenario.node[653].veinsmobility 	totalTime 	40.8
scalar RSUExampleScenario.node[653].veinsmobility 	stopTime 	2000
scalar RSUExampleScenario.node[653].veinsmobility 	minSpeed 	0.24918993701437
scalar RSUExampleScenario.node[653].veinsmobility 	maxSpeed 	13.999158514671
scalar RSUExampleScenario.node[653].veinsmobility 	totalDistance 	414.07623372135
scalar RSUExampleScenario.node[653].veinsmobility 	totalCO2Emission 	135.47798377904
scalar RSUExampleScenario.node[654].veinsmobility 	startTime 	1962.1
scalar RSUExampleScenario.node[654].veinsmobility 	totalTime 	37.8
scalar RSUExampleScenario.node[654].veinsmobility 	stopTime 	2000
scalar RSUExampleScenario.node[654].veinsmobility 	minSpeed 	0.25823604951194
scalar RSUExampleScenario.node[654].veinsmobility 	maxSpeed 	13.997536994193
scalar RSUExampleScenario.node[654].veinsmobility 	totalDistance 	372.45066486054
scalar RSUExampleScenario.node[654].veinsmobility 	totalCO2Emission 	129.47530949626
scalar RSUExampleScenario.node[655].veinsmobility 	startTime 	1965.1
scalar RSUExampleScenario.node[655].veinsmobility 	totalTime 	34.8
scalar RSUExampleScenario.node[655].veinsmobility 	stopTime 	2000
scalar RSUExampleScenario.node[655].veinsmobility 	minSpeed 	0.24769457200984
scalar RSUExampleScenario.node[655].veinsmobility 	maxSpeed 	13.996986328585
scalar RSUExampleScenario.node[655].veinsmobility 	totalDistance 	330.34146346857
scalar RSUExampleScenario.node[655].veinsmobility 	totalCO2Emission 	122.54066087937
scalar RSUExampleScenario.node[656].veinsmobility 	startTime 	1968.1
scalar RSUExampleScenario.node[656].veinsmobility 	totalTime 	31.8
scalar RSUExampleScenario.node[656].veinsmobility 	stopTime 	2000
scalar RSUExampleScenario.node[656].veinsmobility 	minSpeed 	0.25732124403282
scalar RSUExampleScenario.node[656].veinsmobility 	maxSpeed 	13.997194594257
scalar RSUExampleScenario.node[656].veinsmobility 	totalDistance 	288.74013663422
scalar RSUExampleScenario.node[656].veinsmobility 	totalCO2Emission 	115.62362103775
scalar RSUExampleScenario.node[657].veinsmobility 	startTime 	1971.1
scalar RSUExampleScenario.node[657].veinsmobility 	totalTime 	28.8
scalar RSUExampleScenario.node[657].veinsmobility 	stopTime 	2000
scalar RSUExampleScenario.node[657].veinsmobility 	minSpeed 	0.24962000617408
scalar RSUExampleScenario.node[657].veinsmobility 	maxSpeed 	13.878572613457
scalar RSUExampleScenario.node[657].veinsmobility 	totalDistance 	247.98401634836
scalar RSUExampleScenario.node[657].veinsmobility 	totalCO2Emission 	97.717797425295
scalar RSUExampleScenario.node[658].veinsmobility 	startTime 	1974.1
scalar RSUExampleScenario.node[658].veinsmobility 	totalTime 	25.8
scalar RSUExampleScenario.node[658].veinsmobility 	stopTime 	2000
scalar RSUExampleScenario.node[658].veinsmobility 	minSpeed 	0.24905571589875
scalar RSUExampleScenario.node[658].veinsmobility 	maxSpeed 	13.86772714573
scalar RSUExampleScenario.node[658].veinsmobility 	totalDistance 	225.9650099179
scalar RSUExampleScenario.node[658].veinsmobility 	totalCO2Emission 	83.198531017974
scalar RSUExampleScenario.node[659].veinsmobility 	startTime 	1977.1
scalar RSUExampleScenario.node[659].veinsmobility 	totalTime 	22.8
scalar RSUExampleScenario.node[659].veinsmobility 	stopTime 	2000
scalar RSUExampleScenario.node[659].veinsmobility 	minSpeed 	0.2563310886845
scalar RSUExampleScenario.node[659].veinsmobility 	maxSpeed 	13.888270552943
scalar RSUExampleScenario.node[659].veinsmobility 	totalDistance 	207.8378537675
scalar RSUExampleScenario.node[659].veinsmobility 	totalCO2Emission 	78.565223799127
scalar RSUExampleScenario.node[660].veinsmobility 	startTime 	1980.1
scalar RSUExampleScenario.node[660].veinsmobility 	totalTime 	19.8
scalar RSUExampleScenario.node[660].veinsmobility 	stopTime 	2000
scalar RSUExampleScenario.node[660].veinsmobility 	minSpeed 	0.24756727491948
scalar RSUExampleScenario.node[660].veinsmobility 	maxSpeed 	13.880688891914
scalar RSUExampleScenario.node[660].veinsmobility 	totalDistance 	174.64331170544
scalar RSUExampleScenario.node[660].veinsmobility 	totalCO2Emission 	75.468541515583
scalar RSUExampleScenario.node[661].veinsmobility 	startTime 	1983.1
scalar RSUExampleScenario.node[661].veinsmobility 	totalTime 	16.8
scalar RSUExampleScenario.node[661].veinsmobility 	stopTime 	2000
scalar RSUExampleScenario.node[661].veinsmobility 	minSpeed 	0.25344139031437
scalar RSUExampleScenario.node[661].veinsmobility 	maxSpeed 	13.883109653816
scalar RSUExampleScenario.node[661].veinsmobility 	totalDistance 	137.90421495063
scalar RSUExampleScenario.node[661].veinsmobility 	totalCO2Emission 	57.850266346215
scalar RSUExampleScenario.node[662].veinsmobility 	startTime 	1986.1
scalar RSUExampleScenario.node[662].veinsmobility 	totalTime 	13.8
scalar RSUExampleScenario.node[662].veinsmobility 	stopTime 	2000
scalar RSUExampleScenario.node[662].veinsmobility 	minSpeed 	0.24973852498317
scalar RSUExampleScenario.node[662].veinsmobility 	maxSpeed 	13.884539115219
scalar RSUExampleScenario.node[662].veinsmobility 	totalDistance 	116.81276375005
scalar RSUExampleScenario.node[662].veinsmobility 	totalCO2Emission 	43.063431862674
scalar RSUExampleScenario.node[663].veinsmobility 	startTime 	1989.1
scalar RSUExampleScenario.node[663].veinsmobility 	totalTime 	10.8
scalar RSUExampleScenario.node[663].veinsmobility 	stopTime 	2000
scalar RSUExampleScenario.node[663].veinsmobility 	minSpeed 	0.25564023192436
scalar RSUExampleScenario.node[663].veinsmobility 	maxSpeed 	13.885481398837
scalar RSUExampleScenario.node[663].veinsmobility 	totalDistance 	97.231797085831
scalar RSUExampleScenario.node[663].veinsmobility 	totalCO2Emission 	39.263427652033
scalar RSUExampleScenario.node[664].veinsmobility 	startTime 	1992.1
scalar RSUExampleScenario.node[664].veinsmobility 	totalTime 	7.8
scalar RSUExampleScenario.node[664].veinsmobility 	stopTime 	2000
scalar RSUExampleScenario.node[664].veinsmobility 	minSpeed 	0.25051180657512
scalar RSUExampleScenario.node[664].veinsmobility 	maxSpeed 	13.86433995208
scalar RSUExampleScenario.node[664].veinsmobility 	totalDistance 	62.053704333636
scalar RSUExampleScenario.node[664].veinsmobility 	totalCO2Emission 	35.824392106843
scalar RSUExampleScenario.node[665].veinsmobility 	startTime 	1995.1
scalar RSUExampleScenario.node[665].veinsmobility 	totalTime 	4.8
scalar RSUExampleScenario.node[665].veinsmobility 	stopTime 	2000
scalar RSUExampleScenario.node[665].veinsmobility 	minSpeed 	0.25417585265427
scalar RSUExampleScenario.node[665].veinsmobility 	maxSpeed 	9.7147955404059
scalar RSUExampleScenario.node[665].veinsmobility 	totalDistance 	24.064755577815
scalar RSUExampleScenario.node[665].veinsmobility 	totalCO2Emission 	18.08493823096
scalar RSUExampleScenario.node[666].veinsmobility 	startTime 	1998.1
scalar RSUExampleScenario.node[666].veinsmobility 	totalTime 	1.8
scalar RSUExampleScenario.node[666].veinsmobility 	stopTime 	2000
scalar RSUExampleScenario.node[666].veinsmobility 	minSpeed 	0.24884974402841
scalar RSUExampleScenario.node[666].veinsmobility 	maxSpeed 	3.9674836178979
scalar RSUExampleScenario.node[666].veinsmobility 	totalDistance 	3.8986302069222
scalar RSUExampleScenario.node[666].veinsmobility 	totalCO2Emission 	4.0666691120453
