version 2
run statistic-718-20150310-18:17:13-8080
attr c 9
attr configname statistic
attr datetime 20150310-18:17:13
attr experiment statistic
attr inifile omnetpp.ini
attr iterationvars "$p=1/10, $c=9"
attr iterationvars2 "$p=1/10, $c=9, $repetition=18"
attr measurement "$p=1/10, $c=9"
attr network RSUExampleScenario
attr p 1/10
attr processid 8080
attr repetition 18
attr replication #18
attr resultdir results
attr runnumber 718
attr seedset 718

scalar . 	c 	9
scalar RSUExampleScenario.rsu[0].appl 	NumberofCH 	12
scalar RSUExampleScenario.rsu[0].appl 	NumberofON 	77
scalar RSUExampleScenario.rsu[0].appl 	NumberofFN 	11
scalar RSUExampleScenario.rsu[0].appl 	meanClusterNodes 	6.4166666666667
scalar RSUExampleScenario.rsu[0].appl 	varClusterNodes 	2.9568658332017
scalar RSUExampleScenario.rsu[0].appl 	sumCHutility 	469.97051469617
scalar RSUExampleScenario.rsu[0].appl 	meanCHutility 	39.164209558014
scalar RSUExampleScenario.rsu[0].appl 	varCHutility 	2.535210848506
scalar RSUExampleScenario.rsu[0].appl 	sumDiffCHutility 	-28991.823584235
scalar RSUExampleScenario.rsu[0].appl 	meanDiffCHutility 	-2415.9852986863
scalar RSUExampleScenario.rsu[0].appl 	varDiffCHutility 	1083.4092009066
scalar RSUExampleScenario.rsu[0].appl 	expectedCHutility 	412.42457026406
scalar RSUExampleScenario.rsu[0].appl 	meanExpectedCHutility 	34.368714188672
scalar RSUExampleScenario.rsu[0].appl 	varExpectedCHutility 	1.910048311418
