version 2
run statisticLeach-919-20150323-18:38:10-15640
attr c 8
attr configname statisticLeach
attr datetime 20150323-18:38:10
attr experiment statisticLeach
attr inifile omnetpp.ini
attr iterationvars "$p=1/2, $c=8"
attr iterationvars2 "$p=1/2, $c=8, $repetition=9"
attr measurement "$p=1/2, $c=8"
attr network RSUExampleScenario
attr p 1/2
attr processid 15640
attr repetition 9
attr replication #9
attr resultdir results
attr runnumber 919
attr seedset 919

scalar . 	c 	8
scalar RSUExampleScenario.node[0].appl 	meanClusterNodes 	0.83333333333333
scalar RSUExampleScenario.node[0].appl 	meanClusterHeadUtility 	2.1989745569829
scalar RSUExampleScenario.node[0].appl 	NumberofCH 	0.48648648648649
scalar RSUExampleScenario.node[0].appl 	NumberofON 	0.40540540540541
scalar RSUExampleScenario.node[0].appl 	NumberofFN 	0.10810810810811
scalar RSUExampleScenario.node[0].veinsmobility 	startTime 	0.1
scalar RSUExampleScenario.node[0].veinsmobility 	totalTime 	449.9
scalar RSUExampleScenario.node[0].veinsmobility 	stopTime 	450
scalar RSUExampleScenario.node[0].veinsmobility 	minSpeed 	0
scalar RSUExampleScenario.node[0].veinsmobility 	maxSpeed 	13.99993745775
scalar RSUExampleScenario.node[0].veinsmobility 	totalDistance 	3130.9249760458
scalar RSUExampleScenario.node[0].veinsmobility 	totalCO2Emission 	837.5716327951
scalar RSUExampleScenario.node[1].appl 	meanClusterNodes 	0.10526315789474
scalar RSUExampleScenario.node[1].appl 	meanClusterHeadUtility 	2.107621934364
scalar RSUExampleScenario.node[1].appl 	NumberofCH 	0.51351351351351
scalar RSUExampleScenario.node[1].appl 	NumberofON 	0.48648648648649
scalar RSUExampleScenario.node[1].appl 	NumberofFN 	0
scalar RSUExampleScenario.node[1].veinsmobility 	startTime 	2.5
scalar RSUExampleScenario.node[1].veinsmobility 	totalTime 	447.5
scalar RSUExampleScenario.node[1].veinsmobility 	stopTime 	450
scalar RSUExampleScenario.node[1].veinsmobility 	minSpeed 	0
scalar RSUExampleScenario.node[1].veinsmobility 	maxSpeed 	13.999997103112
scalar RSUExampleScenario.node[1].veinsmobility 	totalDistance 	3080.5011347134
scalar RSUExampleScenario.node[1].veinsmobility 	totalCO2Emission 	833.41231617509
scalar RSUExampleScenario.node[10].appl 	meanClusterNodes 	1.1578947368421
scalar RSUExampleScenario.node[10].appl 	meanClusterHeadUtility 	1.8666837290133
scalar RSUExampleScenario.node[10].appl 	NumberofCH 	0.51351351351351
scalar RSUExampleScenario.node[10].appl 	NumberofON 	0.48648648648649
scalar RSUExampleScenario.node[10].appl 	NumberofFN 	0
scalar RSUExampleScenario.node[10].veinsmobility 	startTime 	24.2
scalar RSUExampleScenario.node[10].veinsmobility 	totalTime 	425.8
scalar RSUExampleScenario.node[10].veinsmobility 	stopTime 	450
scalar RSUExampleScenario.node[10].veinsmobility 	minSpeed 	0
scalar RSUExampleScenario.node[10].veinsmobility 	maxSpeed 	13.999918358955
scalar RSUExampleScenario.node[10].veinsmobility 	totalDistance 	2788.5008504889
scalar RSUExampleScenario.node[10].veinsmobility 	totalCO2Emission 	761.29829729758
scalar RSUExampleScenario.node[11].appl 	meanClusterNodes 	0.68421052631579
scalar RSUExampleScenario.node[11].appl 	meanClusterHeadUtility 	2.1591405496506
scalar RSUExampleScenario.node[11].appl 	NumberofCH 	0.51351351351351
scalar RSUExampleScenario.node[11].appl 	NumberofON 	0.45945945945946
scalar RSUExampleScenario.node[11].appl 	NumberofFN 	0.027027027027027
scalar RSUExampleScenario.node[11].veinsmobility 	startTime 	26.6
scalar RSUExampleScenario.node[11].veinsmobility 	totalTime 	423.4
scalar RSUExampleScenario.node[11].veinsmobility 	stopTime 	450
scalar RSUExampleScenario.node[11].veinsmobility 	minSpeed 	0
scalar RSUExampleScenario.node[11].veinsmobility 	maxSpeed 	13.999943928076
scalar RSUExampleScenario.node[11].veinsmobility 	totalDistance 	2758.6667958005
scalar RSUExampleScenario.node[11].veinsmobility 	totalCO2Emission 	752.45752137691
scalar RSUExampleScenario.node[12].appl 	meanClusterNodes 	0.21052631578947
scalar RSUExampleScenario.node[12].appl 	meanClusterHeadUtility 	1.7598292901131
scalar RSUExampleScenario.node[12].appl 	NumberofCH 	0.51351351351351
scalar RSUExampleScenario.node[12].appl 	NumberofON 	0.48648648648649
scalar RSUExampleScenario.node[12].appl 	NumberofFN 	0
scalar RSUExampleScenario.node[12].veinsmobility 	startTime 	29
scalar RSUExampleScenario.node[12].veinsmobility 	totalTime 	421
scalar RSUExampleScenario.node[12].veinsmobility 	stopTime 	450
scalar RSUExampleScenario.node[12].veinsmobility 	minSpeed 	0
scalar RSUExampleScenario.node[12].veinsmobility 	maxSpeed 	13.99988712521
scalar RSUExampleScenario.node[12].veinsmobility 	totalDistance 	2719.2917769891
scalar RSUExampleScenario.node[12].veinsmobility 	totalCO2Emission 	746.35412713888
scalar RSUExampleScenario.node[13].appl 	meanClusterNodes 	0.63157894736842
scalar RSUExampleScenario.node[13].appl 	meanClusterHeadUtility 	1.9722452182899
scalar RSUExampleScenario.node[13].appl 	NumberofCH 	0.51351351351351
scalar RSUExampleScenario.node[13].appl 	NumberofON 	0.48648648648649
scalar RSUExampleScenario.node[13].appl 	NumberofFN 	0
scalar RSUExampleScenario.node[13].veinsmobility 	startTime 	31.4
scalar RSUExampleScenario.node[13].veinsmobility 	totalTime 	418.6
scalar RSUExampleScenario.node[13].veinsmobility 	stopTime 	450
scalar RSUExampleScenario.node[13].veinsmobility 	minSpeed 	0
scalar RSUExampleScenario.node[13].veinsmobility 	maxSpeed 	13.999858741227
scalar RSUExampleScenario.node[13].veinsmobility 	totalDistance 	2685.7449514517
scalar RSUExampleScenario.node[13].veinsmobility 	totalCO2Emission 	740.76595002744
scalar RSUExampleScenario.node[14].appl 	meanClusterNodes 	1.8
scalar RSUExampleScenario.node[14].appl 	meanClusterHeadUtility 	1.6986821483365
scalar RSUExampleScenario.node[14].appl 	NumberofCH 	0.54054054054054
scalar RSUExampleScenario.node[14].appl 	NumberofON 	0.45945945945946
scalar RSUExampleScenario.node[14].appl 	NumberofFN 	0
scalar RSUExampleScenario.node[14].veinsmobility 	startTime 	33.8
scalar RSUExampleScenario.node[14].veinsmobility 	totalTime 	416.2
scalar RSUExampleScenario.node[14].veinsmobility 	stopTime 	450
scalar RSUExampleScenario.node[14].veinsmobility 	minSpeed 	0
scalar RSUExampleScenario.node[14].veinsmobility 	maxSpeed 	13.999964224636
scalar RSUExampleScenario.node[14].veinsmobility 	totalDistance 	2648.7556597162
scalar RSUExampleScenario.node[14].veinsmobility 	totalCO2Emission 	734.8159948653
scalar RSUExampleScenario.node[15].appl 	meanClusterNodes 	0.47368421052632
scalar RSUExampleScenario.node[15].appl 	meanClusterHeadUtility 	1.8847002794625
scalar RSUExampleScenario.node[15].appl 	NumberofCH 	0.51351351351351
scalar RSUExampleScenario.node[15].appl 	NumberofON 	0.48648648648649
scalar RSUExampleScenario.node[15].appl 	NumberofFN 	0
scalar RSUExampleScenario.node[15].veinsmobility 	startTime 	36.2
scalar RSUExampleScenario.node[15].veinsmobility 	totalTime 	413.8
scalar RSUExampleScenario.node[15].veinsmobility 	stopTime 	450
scalar RSUExampleScenario.node[15].veinsmobility 	minSpeed 	0
scalar RSUExampleScenario.node[15].veinsmobility 	maxSpeed 	13.999977895049
scalar RSUExampleScenario.node[15].veinsmobility 	totalDistance 	2617.9240390908
scalar RSUExampleScenario.node[15].veinsmobility 	totalCO2Emission 	728.60483100603
scalar RSUExampleScenario.node[16].appl 	meanClusterNodes 	0.77777777777778
scalar RSUExampleScenario.node[16].appl 	meanClusterHeadUtility 	1.9222023400957
scalar RSUExampleScenario.node[16].appl 	NumberofCH 	0.48648648648649
scalar RSUExampleScenario.node[16].appl 	NumberofON 	0.51351351351351
scalar RSUExampleScenario.node[16].appl 	NumberofFN 	0
scalar RSUExampleScenario.node[16].veinsmobility 	startTime 	38.6
scalar RSUExampleScenario.node[16].veinsmobility 	totalTime 	411.4
scalar RSUExampleScenario.node[16].veinsmobility 	stopTime 	450
scalar RSUExampleScenario.node[16].veinsmobility 	minSpeed 	0
scalar RSUExampleScenario.node[16].veinsmobility 	maxSpeed 	13.999977870563
scalar RSUExampleScenario.node[16].veinsmobility 	totalDistance 	2578.7060694268
scalar RSUExampleScenario.node[16].veinsmobility 	totalCO2Emission 	723.13822757897
scalar RSUExampleScenario.node[17].appl 	meanClusterNodes 	0.88888888888889
scalar RSUExampleScenario.node[17].appl 	meanClusterHeadUtility 	1.8162311758545
scalar RSUExampleScenario.node[17].appl 	NumberofCH 	0.48648648648649
scalar RSUExampleScenario.node[17].appl 	NumberofON 	0.51351351351351
scalar RSUExampleScenario.node[17].appl 	NumberofFN 	0
scalar RSUExampleScenario.node[17].veinsmobility 	startTime 	41
scalar RSUExampleScenario.node[17].veinsmobility 	totalTime 	409
scalar RSUExampleScenario.node[17].veinsmobility 	stopTime 	450
scalar RSUExampleScenario.node[17].veinsmobility 	minSpeed 	0
scalar RSUExampleScenario.node[17].veinsmobility 	maxSpeed 	13.99989264491
scalar RSUExampleScenario.node[17].veinsmobility 	totalDistance 	2544.5851342527
scalar RSUExampleScenario.node[17].veinsmobility 	totalCO2Emission 	719.51703161063
scalar RSUExampleScenario.node[18].appl 	meanClusterNodes 	0.77777777777778
scalar RSUExampleScenario.node[18].appl 	meanClusterHeadUtility 	1.9837430747037
scalar RSUExampleScenario.node[18].appl 	NumberofCH 	0.48648648648649
scalar RSUExampleScenario.node[18].appl 	NumberofON 	0.48648648648649
scalar RSUExampleScenario.node[18].appl 	NumberofFN 	0.027027027027027
scalar RSUExampleScenario.node[18].veinsmobility 	startTime 	43.4
scalar RSUExampleScenario.node[18].veinsmobility 	totalTime 	406.6
scalar RSUExampleScenario.node[18].veinsmobility 	stopTime 	450
scalar RSUExampleScenario.node[18].veinsmobility 	minSpeed 	0
scalar RSUExampleScenario.node[18].veinsmobility 	maxSpeed 	13.999960386807
scalar RSUExampleScenario.node[18].veinsmobility 	totalDistance 	2507.3235066438
scalar RSUExampleScenario.node[18].veinsmobility 	totalCO2Emission 	709.78933098745
scalar RSUExampleScenario.node[19].appl 	meanClusterNodes 	0.31578947368421
scalar RSUExampleScenario.node[19].appl 	meanClusterHeadUtility 	1.7265948545699
scalar RSUExampleScenario.node[19].appl 	NumberofCH 	0.51351351351351
scalar RSUExampleScenario.node[19].appl 	NumberofON 	0.2972972972973
scalar RSUExampleScenario.node[19].appl 	NumberofFN 	0.18918918918919
scalar RSUExampleScenario.node[19].veinsmobility 	startTime 	45.8
scalar RSUExampleScenario.node[19].veinsmobility 	totalTime 	404.2
scalar RSUExampleScenario.node[19].veinsmobility 	stopTime 	450
scalar RSUExampleScenario.node[19].veinsmobility 	minSpeed 	0
scalar RSUExampleScenario.node[19].veinsmobility 	maxSpeed 	13.999979571623
scalar RSUExampleScenario.node[19].veinsmobility 	totalDistance 	2477.2653692157
scalar RSUExampleScenario.node[19].veinsmobility 	totalCO2Emission 	708.59292989537
scalar RSUExampleScenario.node[2].appl 	meanClusterNodes 	0.89473684210526
scalar RSUExampleScenario.node[2].appl 	meanClusterHeadUtility 	1.8939199681526
scalar RSUExampleScenario.node[2].appl 	NumberofCH 	0.51351351351351
scalar RSUExampleScenario.node[2].appl 	NumberofON 	0.24324324324324
scalar RSUExampleScenario.node[2].appl 	NumberofFN 	0.24324324324324
scalar RSUExampleScenario.node[2].veinsmobility 	startTime 	4.9
scalar RSUExampleScenario.node[2].veinsmobility 	totalTime 	445.1
scalar RSUExampleScenario.node[2].veinsmobility 	stopTime 	450
scalar RSUExampleScenario.node[2].veinsmobility 	minSpeed 	0
scalar RSUExampleScenario.node[2].veinsmobility 	maxSpeed 	13.999949801457
scalar RSUExampleScenario.node[2].veinsmobility 	totalDistance 	3035.6023081653
scalar RSUExampleScenario.node[2].veinsmobility 	totalCO2Emission 	823.57682280033
scalar RSUExampleScenario.node[20].appl 	meanClusterNodes 	0.82352941176471
scalar RSUExampleScenario.node[20].appl 	meanClusterHeadUtility 	1.8064173368857
scalar RSUExampleScenario.node[20].appl 	NumberofCH 	0.45945945945946
scalar RSUExampleScenario.node[20].appl 	NumberofON 	0.54054054054054
scalar RSUExampleScenario.node[20].appl 	NumberofFN 	0
scalar RSUExampleScenario.node[20].veinsmobility 	startTime 	48.3
scalar RSUExampleScenario.node[20].veinsmobility 	totalTime 	401.7
scalar RSUExampleScenario.node[20].veinsmobility 	stopTime 	450
scalar RSUExampleScenario.node[20].veinsmobility 	minSpeed 	0
scalar RSUExampleScenario.node[20].veinsmobility 	maxSpeed 	13.999757104819
scalar RSUExampleScenario.node[20].veinsmobility 	totalDistance 	2437.8961728296
scalar RSUExampleScenario.node[20].veinsmobility 	totalCO2Emission 	701.10468001371
scalar RSUExampleScenario.node[21].appl 	meanClusterNodes 	0.52631578947368
scalar RSUExampleScenario.node[21].appl 	meanClusterHeadUtility 	1.8372659597142
scalar RSUExampleScenario.node[21].appl 	NumberofCH 	0.51351351351351
scalar RSUExampleScenario.node[21].appl 	NumberofON 	0.48648648648649
scalar RSUExampleScenario.node[21].appl 	NumberofFN 	0
scalar RSUExampleScenario.node[21].veinsmobility 	startTime 	50.7
scalar RSUExampleScenario.node[21].veinsmobility 	totalTime 	399.3
scalar RSUExampleScenario.node[21].veinsmobility 	stopTime 	450
scalar RSUExampleScenario.node[21].veinsmobility 	minSpeed 	0
scalar RSUExampleScenario.node[21].veinsmobility 	maxSpeed 	13.999736559698
scalar RSUExampleScenario.node[21].veinsmobility 	totalDistance 	2411.0978994718
scalar RSUExampleScenario.node[21].veinsmobility 	totalCO2Emission 	699.04501176978
scalar RSUExampleScenario.node[22].appl 	meanClusterNodes 	0.88888888888889
scalar RSUExampleScenario.node[22].appl 	meanClusterHeadUtility 	2.2823536433168
scalar RSUExampleScenario.node[22].appl 	NumberofCH 	0.48648648648649
scalar RSUExampleScenario.node[22].appl 	NumberofON 	0.51351351351351
scalar RSUExampleScenario.node[22].appl 	NumberofFN 	0
scalar RSUExampleScenario.node[22].veinsmobility 	startTime 	53.1
scalar RSUExampleScenario.node[22].veinsmobility 	totalTime 	396.9
scalar RSUExampleScenario.node[22].veinsmobility 	stopTime 	450
scalar RSUExampleScenario.node[22].veinsmobility 	minSpeed 	0
scalar RSUExampleScenario.node[22].veinsmobility 	maxSpeed 	13.999723930412
scalar RSUExampleScenario.node[22].veinsmobility 	totalDistance 	2372.3490571856
scalar RSUExampleScenario.node[22].veinsmobility 	totalCO2Emission 	689.1952101459
scalar RSUExampleScenario.node[23].appl 	meanClusterNodes 	1.1
scalar RSUExampleScenario.node[23].appl 	meanClusterHeadUtility 	1.6993113180322
scalar RSUExampleScenario.node[23].appl 	NumberofCH 	0.54054054054054
scalar RSUExampleScenario.node[23].appl 	NumberofON 	0.45945945945946
scalar RSUExampleScenario.node[23].appl 	NumberofFN 	0
scalar RSUExampleScenario.node[23].veinsmobility 	startTime 	55.5
scalar RSUExampleScenario.node[23].veinsmobility 	totalTime 	394.5
scalar RSUExampleScenario.node[23].veinsmobility 	stopTime 	450
scalar RSUExampleScenario.node[23].veinsmobility 	minSpeed 	0
scalar RSUExampleScenario.node[23].veinsmobility 	maxSpeed 	13.999960815492
scalar RSUExampleScenario.node[23].veinsmobility 	totalDistance 	2340.4266169391
scalar RSUExampleScenario.node[23].veinsmobility 	totalCO2Emission 	682.69389304143
scalar RSUExampleScenario.node[24].appl 	meanClusterNodes 	0.63157894736842
scalar RSUExampleScenario.node[24].appl 	meanClusterHeadUtility 	1.8102310189417
scalar RSUExampleScenario.node[24].appl 	NumberofCH 	0.51351351351351
scalar RSUExampleScenario.node[24].appl 	NumberofON 	0.48648648648649
scalar RSUExampleScenario.node[24].appl 	NumberofFN 	0
scalar RSUExampleScenario.node[24].veinsmobility 	startTime 	57.9
scalar RSUExampleScenario.node[24].veinsmobility 	totalTime 	392.1
scalar RSUExampleScenario.node[24].veinsmobility 	stopTime 	450
scalar RSUExampleScenario.node[24].veinsmobility 	minSpeed 	0
scalar RSUExampleScenario.node[24].veinsmobility 	maxSpeed 	13.999957045584
scalar RSUExampleScenario.node[24].veinsmobility 	totalDistance 	2302.8576202253
scalar RSUExampleScenario.node[24].veinsmobility 	totalCO2Emission 	677.16128104544
scalar RSUExampleScenario.node[25].appl 	meanClusterNodes 	2.2
scalar RSUExampleScenario.node[25].appl 	meanClusterHeadUtility 	1.6704447012786
scalar RSUExampleScenario.node[25].appl 	NumberofCH 	0.54054054054054
scalar RSUExampleScenario.node[25].appl 	NumberofON 	0.24324324324324
scalar RSUExampleScenario.node[25].appl 	NumberofFN 	0.21621621621622
scalar RSUExampleScenario.node[25].veinsmobility 	startTime 	60.3
scalar RSUExampleScenario.node[25].veinsmobility 	totalTime 	389.7
scalar RSUExampleScenario.node[25].veinsmobility 	stopTime 	450
scalar RSUExampleScenario.node[25].veinsmobility 	minSpeed 	0
scalar RSUExampleScenario.node[25].veinsmobility 	maxSpeed 	13.999959595753
scalar RSUExampleScenario.node[25].veinsmobility 	totalDistance 	2275.5486760917
scalar RSUExampleScenario.node[25].veinsmobility 	totalCO2Emission 	673.73398257219
scalar RSUExampleScenario.node[26].appl 	meanClusterNodes 	1.4736842105263
scalar RSUExampleScenario.node[26].appl 	meanClusterHeadUtility 	2.1722104419524
scalar RSUExampleScenario.node[26].appl 	NumberofCH 	0.51351351351351
scalar RSUExampleScenario.node[26].appl 	NumberofON 	0.32432432432432
scalar RSUExampleScenario.node[26].appl 	NumberofFN 	0.16216216216216
scalar RSUExampleScenario.node[26].veinsmobility 	startTime 	62.7
scalar RSUExampleScenario.node[26].veinsmobility 	totalTime 	387.3
scalar RSUExampleScenario.node[26].veinsmobility 	stopTime 	450
scalar RSUExampleScenario.node[26].veinsmobility 	minSpeed 	0
scalar RSUExampleScenario.node[26].veinsmobility 	maxSpeed 	13.999970612451
scalar RSUExampleScenario.node[26].veinsmobility 	totalDistance 	2234.4216057384
scalar RSUExampleScenario.node[26].veinsmobility 	totalCO2Emission 	666.64642196842
scalar RSUExampleScenario.node[27].appl 	meanClusterNodes 	1.0526315789474
scalar RSUExampleScenario.node[27].appl 	meanClusterHeadUtility 	1.9152317335959
scalar RSUExampleScenario.node[27].appl 	NumberofCH 	0.51351351351351
scalar RSUExampleScenario.node[27].appl 	NumberofON 	0.45945945945946
scalar RSUExampleScenario.node[27].appl 	NumberofFN 	0.027027027027027
scalar RSUExampleScenario.node[27].veinsmobility 	startTime 	65.1
scalar RSUExampleScenario.node[27].veinsmobility 	totalTime 	384.9
scalar RSUExampleScenario.node[27].veinsmobility 	stopTime 	450
scalar RSUExampleScenario.node[27].veinsmobility 	minSpeed 	0
scalar RSUExampleScenario.node[27].veinsmobility 	maxSpeed 	13.999956480118
scalar RSUExampleScenario.node[27].veinsmobility 	totalDistance 	2205.5030346082
scalar RSUExampleScenario.node[27].veinsmobility 	totalCO2Emission 	661.13754927217
scalar RSUExampleScenario.node[28].appl 	meanClusterNodes 	1.1111111111111
scalar RSUExampleScenario.node[28].appl 	meanClusterHeadUtility 	1.7357527424574
scalar RSUExampleScenario.node[28].appl 	NumberofCH 	0.48648648648649
scalar RSUExampleScenario.node[28].appl 	NumberofON 	0.51351351351351
scalar RSUExampleScenario.node[28].appl 	NumberofFN 	0
scalar RSUExampleScenario.node[28].veinsmobility 	startTime 	67.5
scalar RSUExampleScenario.node[28].veinsmobility 	totalTime 	382.5
scalar RSUExampleScenario.node[28].veinsmobility 	stopTime 	450
scalar RSUExampleScenario.node[28].veinsmobility 	minSpeed 	0
scalar RSUExampleScenario.node[28].veinsmobility 	maxSpeed 	13.999987480133
scalar RSUExampleScenario.node[28].veinsmobility 	totalDistance 	2167.64183878
scalar RSUExampleScenario.node[28].veinsmobility 	totalCO2Emission 	654.99710947561
scalar RSUExampleScenario.node[29].appl 	meanClusterNodes 	0.83333333333333
scalar RSUExampleScenario.node[29].appl 	meanClusterHeadUtility 	2.2767880695495
scalar RSUExampleScenario.node[29].appl 	NumberofCH 	0.48648648648649
scalar RSUExampleScenario.node[29].appl 	NumberofON 	0.51351351351351
scalar RSUExampleScenario.node[29].appl 	NumberofFN 	0
scalar RSUExampleScenario.node[29].veinsmobility 	startTime 	69.9
scalar RSUExampleScenario.node[29].veinsmobility 	totalTime 	380.1
scalar RSUExampleScenario.node[29].veinsmobility 	stopTime 	450
scalar RSUExampleScenario.node[29].veinsmobility 	minSpeed 	0
scalar RSUExampleScenario.node[29].veinsmobility 	maxSpeed 	13.999984753956
scalar RSUExampleScenario.node[29].veinsmobility 	totalDistance 	2137.2803634995
scalar RSUExampleScenario.node[29].veinsmobility 	totalCO2Emission 	650.19861584462
scalar RSUExampleScenario.node[3].appl 	meanClusterNodes 	0.64705882352941
scalar RSUExampleScenario.node[3].appl 	meanClusterHeadUtility 	2.1014852129408
scalar RSUExampleScenario.node[3].appl 	NumberofCH 	0.45945945945946
scalar RSUExampleScenario.node[3].appl 	NumberofON 	0.54054054054054
scalar RSUExampleScenario.node[3].appl 	NumberofFN 	0
scalar RSUExampleScenario.node[3].veinsmobility 	startTime 	7.3
scalar RSUExampleScenario.node[3].veinsmobility 	totalTime 	442.7
scalar RSUExampleScenario.node[3].veinsmobility 	stopTime 	450
scalar RSUExampleScenario.node[3].veinsmobility 	minSpeed 	0
scalar RSUExampleScenario.node[3].veinsmobility 	maxSpeed 	13.999986833094
scalar RSUExampleScenario.node[3].veinsmobility 	totalDistance 	2998.6623270653
scalar RSUExampleScenario.node[3].veinsmobility 	totalCO2Emission 	811.98292614317
scalar RSUExampleScenario.node[30].appl 	meanClusterNodes 	0.5
scalar RSUExampleScenario.node[30].appl 	meanClusterHeadUtility 	1.883521388791
scalar RSUExampleScenario.node[30].appl 	NumberofCH 	0.48648648648649
scalar RSUExampleScenario.node[30].appl 	NumberofON 	0.51351351351351
scalar RSUExampleScenario.node[30].appl 	NumberofFN 	0
scalar RSUExampleScenario.node[30].veinsmobility 	startTime 	72.4
scalar RSUExampleScenario.node[30].veinsmobility 	totalTime 	377.6
scalar RSUExampleScenario.node[30].veinsmobility 	stopTime 	450
scalar RSUExampleScenario.node[30].veinsmobility 	minSpeed 	0
scalar RSUExampleScenario.node[30].veinsmobility 	maxSpeed 	13.999983354274
scalar RSUExampleScenario.node[30].veinsmobility 	totalDistance 	2099.965298849
scalar RSUExampleScenario.node[30].veinsmobility 	totalCO2Emission 	644.39358679305
scalar RSUExampleScenario.node[31].appl 	meanClusterNodes 	1.05
scalar RSUExampleScenario.node[31].appl 	meanClusterHeadUtility 	1.6187147247984
scalar RSUExampleScenario.node[31].appl 	NumberofCH 	0.54054054054054
scalar RSUExampleScenario.node[31].appl 	NumberofON 	0.45945945945946
scalar RSUExampleScenario.node[31].appl 	NumberofFN 	0
scalar RSUExampleScenario.node[31].veinsmobility 	startTime 	74.8
scalar RSUExampleScenario.node[31].veinsmobility 	totalTime 	375.2
scalar RSUExampleScenario.node[31].veinsmobility 	stopTime 	450
scalar RSUExampleScenario.node[31].veinsmobility 	minSpeed 	0
scalar RSUExampleScenario.node[31].veinsmobility 	maxSpeed 	13.999975739061
scalar RSUExampleScenario.node[31].veinsmobility 	totalDistance 	2068.772099418
scalar RSUExampleScenario.node[31].veinsmobility 	totalCO2Emission 	640.4746677067
scalar RSUExampleScenario.node[32].appl 	meanClusterNodes 	0.44444444444444
scalar RSUExampleScenario.node[32].appl 	meanClusterHeadUtility 	1.7409940269682
scalar RSUExampleScenario.node[32].appl 	NumberofCH 	0.48648648648649
scalar RSUExampleScenario.node[32].appl 	NumberofON 	0.40540540540541
scalar RSUExampleScenario.node[32].appl 	NumberofFN 	0.10810810810811
scalar RSUExampleScenario.node[32].veinsmobility 	startTime 	77.2
scalar RSUExampleScenario.node[32].veinsmobility 	totalTime 	372.8
scalar RSUExampleScenario.node[32].veinsmobility 	stopTime 	450
scalar RSUExampleScenario.node[32].veinsmobility 	minSpeed 	0
scalar RSUExampleScenario.node[32].veinsmobility 	maxSpeed 	13.999978297069
scalar RSUExampleScenario.node[32].veinsmobility 	totalDistance 	2033.260747353
scalar RSUExampleScenario.node[32].veinsmobility 	totalCO2Emission 	633.04202973599
scalar RSUExampleScenario.node[33].appl 	meanClusterNodes 	0.47368421052632
scalar RSUExampleScenario.node[33].appl 	meanClusterHeadUtility 	1.6840181212339
scalar RSUExampleScenario.node[33].appl 	NumberofCH 	0.51351351351351
scalar RSUExampleScenario.node[33].appl 	NumberofON 	0.48648648648649
scalar RSUExampleScenario.node[33].appl 	NumberofFN 	0
scalar RSUExampleScenario.node[33].veinsmobility 	startTime 	79.6
scalar RSUExampleScenario.node[33].veinsmobility 	totalTime 	370.4
scalar RSUExampleScenario.node[33].veinsmobility 	stopTime 	450
scalar RSUExampleScenario.node[33].veinsmobility 	minSpeed 	0
scalar RSUExampleScenario.node[33].veinsmobility 	maxSpeed 	13.999664905544
scalar RSUExampleScenario.node[33].veinsmobility 	totalDistance 	2000.1754963786
scalar RSUExampleScenario.node[33].veinsmobility 	totalCO2Emission 	628.09025199026
scalar RSUExampleScenario.node[34].appl 	meanClusterNodes 	0.55555555555556
scalar RSUExampleScenario.node[34].appl 	meanClusterHeadUtility 	1.719874807218
scalar RSUExampleScenario.node[34].appl 	NumberofCH 	0.48648648648649
scalar RSUExampleScenario.node[34].appl 	NumberofON 	0.51351351351351
scalar RSUExampleScenario.node[34].appl 	NumberofFN 	0
scalar RSUExampleScenario.node[34].veinsmobility 	startTime 	82
scalar RSUExampleScenario.node[34].veinsmobility 	totalTime 	368
scalar RSUExampleScenario.node[34].veinsmobility 	stopTime 	450
scalar RSUExampleScenario.node[34].veinsmobility 	minSpeed 	0
scalar RSUExampleScenario.node[34].veinsmobility 	maxSpeed 	13.999950499679
scalar RSUExampleScenario.node[34].veinsmobility 	totalDistance 	1966.1416866229
scalar RSUExampleScenario.node[34].veinsmobility 	totalCO2Emission 	619.63410097054
scalar RSUExampleScenario.node[35].appl 	meanClusterNodes 	1
scalar RSUExampleScenario.node[35].appl 	meanClusterHeadUtility 	2.0221477487647
scalar RSUExampleScenario.node[35].appl 	NumberofCH 	0.48648648648649
scalar RSUExampleScenario.node[35].appl 	NumberofON 	0.51351351351351
scalar RSUExampleScenario.node[35].appl 	NumberofFN 	0
scalar RSUExampleScenario.node[35].veinsmobility 	startTime 	84.4
scalar RSUExampleScenario.node[35].veinsmobility 	totalTime 	365.6
scalar RSUExampleScenario.node[35].veinsmobility 	stopTime 	450
scalar RSUExampleScenario.node[35].veinsmobility 	minSpeed 	0
scalar RSUExampleScenario.node[35].veinsmobility 	maxSpeed 	13.99992803124
scalar RSUExampleScenario.node[35].veinsmobility 	totalDistance 	1932.1954599185
scalar RSUExampleScenario.node[35].veinsmobility 	totalCO2Emission 	613.97892768279
scalar RSUExampleScenario.node[36].appl 	meanClusterNodes 	0.17647058823529
scalar RSUExampleScenario.node[36].appl 	meanClusterHeadUtility 	1.8215645720223
scalar RSUExampleScenario.node[36].appl 	NumberofCH 	0.45945945945946
scalar RSUExampleScenario.node[36].appl 	NumberofON 	0.51351351351351
scalar RSUExampleScenario.node[36].appl 	NumberofFN 	0.027027027027027
scalar RSUExampleScenario.node[36].veinsmobility 	startTime 	86.8
scalar RSUExampleScenario.node[36].veinsmobility 	totalTime 	363.2
scalar RSUExampleScenario.node[36].veinsmobility 	stopTime 	450
scalar RSUExampleScenario.node[36].veinsmobility 	minSpeed 	0
scalar RSUExampleScenario.node[36].veinsmobility 	maxSpeed 	13.999973892896
scalar RSUExampleScenario.node[36].veinsmobility 	totalDistance 	1897.9375331712
scalar RSUExampleScenario.node[36].veinsmobility 	totalCO2Emission 	610.06701447882
scalar RSUExampleScenario.node[37].appl 	meanClusterNodes 	1.7777777777778
scalar RSUExampleScenario.node[37].appl 	meanClusterHeadUtility 	1.7545814084879
scalar RSUExampleScenario.node[37].appl 	NumberofCH 	0.48648648648649
scalar RSUExampleScenario.node[37].appl 	NumberofON 	0.51351351351351
scalar RSUExampleScenario.node[37].appl 	NumberofFN 	0
scalar RSUExampleScenario.node[37].veinsmobility 	startTime 	89.2
scalar RSUExampleScenario.node[37].veinsmobility 	totalTime 	360.8
scalar RSUExampleScenario.node[37].veinsmobility 	stopTime 	450
scalar RSUExampleScenario.node[37].veinsmobility 	minSpeed 	0
scalar RSUExampleScenario.node[37].veinsmobility 	maxSpeed 	13.999959955155
scalar RSUExampleScenario.node[37].veinsmobility 	totalDistance 	1865.3759742917
scalar RSUExampleScenario.node[37].veinsmobility 	totalCO2Emission 	602.89700089249
scalar RSUExampleScenario.node[38].appl 	meanClusterNodes 	0.9
scalar RSUExampleScenario.node[38].appl 	meanClusterHeadUtility 	1.923032158704
scalar RSUExampleScenario.node[38].appl 	NumberofCH 	0.54054054054054
scalar RSUExampleScenario.node[38].appl 	NumberofON 	0.40540540540541
scalar RSUExampleScenario.node[38].appl 	NumberofFN 	0.054054054054054
scalar RSUExampleScenario.node[38].veinsmobility 	startTime 	91.6
scalar RSUExampleScenario.node[38].veinsmobility 	totalTime 	358.4
scalar RSUExampleScenario.node[38].veinsmobility 	stopTime 	450
scalar RSUExampleScenario.node[38].veinsmobility 	minSpeed 	0
scalar RSUExampleScenario.node[38].veinsmobility 	maxSpeed 	13.999983650476
scalar RSUExampleScenario.node[38].veinsmobility 	totalDistance 	1831.1810519065
scalar RSUExampleScenario.node[38].veinsmobility 	totalCO2Emission 	600.8159234757
scalar RSUExampleScenario.node[39].appl 	meanClusterNodes 	0.25
scalar RSUExampleScenario.node[39].appl 	meanClusterHeadUtility 	1.5599869450095
scalar RSUExampleScenario.node[39].appl 	NumberofCH 	0.54054054054054
scalar RSUExampleScenario.node[39].appl 	NumberofON 	0.45945945945946
scalar RSUExampleScenario.node[39].appl 	NumberofFN 	0
scalar RSUExampleScenario.node[39].veinsmobility 	startTime 	94
scalar RSUExampleScenario.node[39].veinsmobility 	totalTime 	356
scalar RSUExampleScenario.node[39].veinsmobility 	stopTime 	450
scalar RSUExampleScenario.node[39].veinsmobility 	minSpeed 	0
scalar RSUExampleScenario.node[39].veinsmobility 	maxSpeed 	13.999937827352
scalar RSUExampleScenario.node[39].veinsmobility 	totalDistance 	1797.4201539357
scalar RSUExampleScenario.node[39].veinsmobility 	totalCO2Emission 	593.8140474424
scalar RSUExampleScenario.node[4].appl 	meanClusterNodes 	1.35
scalar RSUExampleScenario.node[4].appl 	meanClusterHeadUtility 	1.5933595290362
scalar RSUExampleScenario.node[4].appl 	NumberofCH 	0.54054054054054
scalar RSUExampleScenario.node[4].appl 	NumberofON 	0.45945945945946
scalar RSUExampleScenario.node[4].appl 	NumberofFN 	0
scalar RSUExampleScenario.node[4].veinsmobility 	startTime 	9.7
scalar RSUExampleScenario.node[4].veinsmobility 	totalTime 	440.3
scalar RSUExampleScenario.node[4].veinsmobility 	stopTime 	450
scalar RSUExampleScenario.node[4].veinsmobility 	minSpeed 	0
scalar RSUExampleScenario.node[4].veinsmobility 	maxSpeed 	13.999881073914
scalar RSUExampleScenario.node[4].veinsmobility 	totalDistance 	2948.6437603881
scalar RSUExampleScenario.node[4].veinsmobility 	totalCO2Emission 	803.60751444062
scalar RSUExampleScenario.node[40].appl 	meanClusterNodes 	0.63157894736842
scalar RSUExampleScenario.node[40].appl 	meanClusterHeadUtility 	1.7605310536917
scalar RSUExampleScenario.node[40].appl 	NumberofCH 	0.51351351351351
scalar RSUExampleScenario.node[40].appl 	NumberofON 	0.48648648648649
scalar RSUExampleScenario.node[40].appl 	NumberofFN 	0
scalar RSUExampleScenario.node[40].veinsmobility 	startTime 	96.5
scalar RSUExampleScenario.node[40].veinsmobility 	totalTime 	353.5
scalar RSUExampleScenario.node[40].veinsmobility 	stopTime 	450
scalar RSUExampleScenario.node[40].veinsmobility 	minSpeed 	0
scalar RSUExampleScenario.node[40].veinsmobility 	maxSpeed 	13.999968217134
scalar RSUExampleScenario.node[40].veinsmobility 	totalDistance 	1764.1117473314
scalar RSUExampleScenario.node[40].veinsmobility 	totalCO2Emission 	588.69240512952
scalar RSUExampleScenario.node[41].appl 	meanClusterNodes 	1.2222222222222
scalar RSUExampleScenario.node[41].appl 	meanClusterHeadUtility 	1.9364029655237
scalar RSUExampleScenario.node[41].appl 	NumberofCH 	0.48648648648649
scalar RSUExampleScenario.node[41].appl 	NumberofON 	0.48648648648649
scalar RSUExampleScenario.node[41].appl 	NumberofFN 	0.027027027027027
scalar RSUExampleScenario.node[41].veinsmobility 	startTime 	98.9
scalar RSUExampleScenario.node[41].veinsmobility 	totalTime 	351.1
scalar RSUExampleScenario.node[41].veinsmobility 	stopTime 	450
scalar RSUExampleScenario.node[41].veinsmobility 	minSpeed 	0
scalar RSUExampleScenario.node[41].veinsmobility 	maxSpeed 	13.999705780458
scalar RSUExampleScenario.node[41].veinsmobility 	totalDistance 	1727.9988081825
scalar RSUExampleScenario.node[41].veinsmobility 	totalCO2Emission 	578.37347390064
scalar RSUExampleScenario.node[42].appl 	meanClusterNodes 	0.66666666666667
scalar RSUExampleScenario.node[42].appl 	meanClusterHeadUtility 	1.981505478012
scalar RSUExampleScenario.node[42].appl 	NumberofCH 	0.48648648648649
scalar RSUExampleScenario.node[42].appl 	NumberofON 	0.51351351351351
scalar RSUExampleScenario.node[42].appl 	NumberofFN 	0
scalar RSUExampleScenario.node[42].veinsmobility 	startTime 	101.3
scalar RSUExampleScenario.node[42].veinsmobility 	totalTime 	348.7
scalar RSUExampleScenario.node[42].veinsmobility 	stopTime 	450
scalar RSUExampleScenario.node[42].veinsmobility 	minSpeed 	0
scalar RSUExampleScenario.node[42].veinsmobility 	maxSpeed 	13.999248966302
scalar RSUExampleScenario.node[42].veinsmobility 	totalDistance 	1694.3829428886
scalar RSUExampleScenario.node[42].veinsmobility 	totalCO2Emission 	576.96571583807
scalar RSUExampleScenario.node[43].appl 	meanClusterNodes 	1.5555555555556
scalar RSUExampleScenario.node[43].appl 	meanClusterHeadUtility 	1.8249654042055
scalar RSUExampleScenario.node[43].appl 	NumberofCH 	0.48648648648649
scalar RSUExampleScenario.node[43].appl 	NumberofON 	0.24324324324324
scalar RSUExampleScenario.node[43].appl 	NumberofFN 	0.27027027027027
scalar RSUExampleScenario.node[43].veinsmobility 	startTime 	103.7
scalar RSUExampleScenario.node[43].veinsmobility 	totalTime 	346.3
scalar RSUExampleScenario.node[43].veinsmobility 	stopTime 	450
scalar RSUExampleScenario.node[43].veinsmobility 	minSpeed 	0
scalar RSUExampleScenario.node[43].veinsmobility 	maxSpeed 	13.999863308212
scalar RSUExampleScenario.node[43].veinsmobility 	totalDistance 	1661.8617818514
scalar RSUExampleScenario.node[43].veinsmobility 	totalCO2Emission 	569.36748028131
scalar RSUExampleScenario.node[44].appl 	meanClusterNodes 	0.31578947368421
scalar RSUExampleScenario.node[44].appl 	meanClusterHeadUtility 	1.7063749414232
scalar RSUExampleScenario.node[44].appl 	NumberofCH 	0.51351351351351
scalar RSUExampleScenario.node[44].appl 	NumberofON 	0.48648648648649
scalar RSUExampleScenario.node[44].appl 	NumberofFN 	0
scalar RSUExampleScenario.node[44].veinsmobility 	startTime 	106.1
scalar RSUExampleScenario.node[44].veinsmobility 	totalTime 	343.9
scalar RSUExampleScenario.node[44].veinsmobility 	stopTime 	450
scalar RSUExampleScenario.node[44].veinsmobility 	minSpeed 	0
scalar RSUExampleScenario.node[44].veinsmobility 	maxSpeed 	13.999909621829
scalar RSUExampleScenario.node[44].veinsmobility 	totalDistance 	1629.3791891599
scalar RSUExampleScenario.node[44].veinsmobility 	totalCO2Emission 	565.21534094708
scalar RSUExampleScenario.node[45].appl 	meanClusterNodes 	0.84210526315789
scalar RSUExampleScenario.node[45].appl 	meanClusterHeadUtility 	1.673304904633
scalar RSUExampleScenario.node[45].appl 	NumberofCH 	0.51351351351351
scalar RSUExampleScenario.node[45].appl 	NumberofON 	0.48648648648649
scalar RSUExampleScenario.node[45].appl 	NumberofFN 	0
scalar RSUExampleScenario.node[45].veinsmobility 	startTime 	108.5
scalar RSUExampleScenario.node[45].veinsmobility 	totalTime 	341.5
scalar RSUExampleScenario.node[45].veinsmobility 	stopTime 	450
scalar RSUExampleScenario.node[45].veinsmobility 	minSpeed 	0
scalar RSUExampleScenario.node[45].veinsmobility 	maxSpeed 	13.999891688684
scalar RSUExampleScenario.node[45].veinsmobility 	totalDistance 	1593.1976409021
scalar RSUExampleScenario.node[45].veinsmobility 	totalCO2Emission 	561.69151906874
scalar RSUExampleScenario.node[46].appl 	meanClusterNodes 	1.4444444444444
scalar RSUExampleScenario.node[46].appl 	meanClusterHeadUtility 	2.0245570391362
scalar RSUExampleScenario.node[46].appl 	NumberofCH 	0.48648648648649
scalar RSUExampleScenario.node[46].appl 	NumberofON 	0.51351351351351
scalar RSUExampleScenario.node[46].appl 	NumberofFN 	0
scalar RSUExampleScenario.node[46].veinsmobility 	startTime 	110.9
scalar RSUExampleScenario.node[46].veinsmobility 	totalTime 	339.1
scalar RSUExampleScenario.node[46].veinsmobility 	stopTime 	450
scalar RSUExampleScenario.node[46].veinsmobility 	minSpeed 	0
scalar RSUExampleScenario.node[46].veinsmobility 	maxSpeed 	13.999951414559
scalar RSUExampleScenario.node[46].veinsmobility 	totalDistance 	1560.2331634457
scalar RSUExampleScenario.node[46].veinsmobility 	totalCO2Emission 	556.50272875481
scalar RSUExampleScenario.node[47].appl 	meanClusterNodes 	1.0526315789474
scalar RSUExampleScenario.node[47].appl 	meanClusterHeadUtility 	1.9216462537535
scalar RSUExampleScenario.node[47].appl 	NumberofCH 	0.51351351351351
scalar RSUExampleScenario.node[47].appl 	NumberofON 	0.48648648648649
scalar RSUExampleScenario.node[47].appl 	NumberofFN 	0
scalar RSUExampleScenario.node[47].veinsmobility 	startTime 	113.3
scalar RSUExampleScenario.node[47].veinsmobility 	totalTime 	336.7
scalar RSUExampleScenario.node[47].veinsmobility 	stopTime 	450
scalar RSUExampleScenario.node[47].veinsmobility 	minSpeed 	0
scalar RSUExampleScenario.node[47].veinsmobility 	maxSpeed 	13.999871496155
scalar RSUExampleScenario.node[47].veinsmobility 	totalDistance 	1527.595852093
scalar RSUExampleScenario.node[47].veinsmobility 	totalCO2Emission 	548.59719273666
scalar RSUExampleScenario.node[48].appl 	meanClusterNodes 	0.38888888888889
scalar RSUExampleScenario.node[48].appl 	meanClusterHeadUtility 	1.7385053991728
scalar RSUExampleScenario.node[48].appl 	NumberofCH 	0.48648648648649
scalar RSUExampleScenario.node[48].appl 	NumberofON 	0.51351351351351
scalar RSUExampleScenario.node[48].appl 	NumberofFN 	0
scalar RSUExampleScenario.node[48].veinsmobility 	startTime 	115.7
scalar RSUExampleScenario.node[48].veinsmobility 	totalTime 	334.3
scalar RSUExampleScenario.node[48].veinsmobility 	stopTime 	450
scalar RSUExampleScenario.node[48].veinsmobility 	minSpeed 	0
scalar RSUExampleScenario.node[48].veinsmobility 	maxSpeed 	13.999541830716
scalar RSUExampleScenario.node[48].veinsmobility 	totalDistance 	1492.6178744513
scalar RSUExampleScenario.node[48].veinsmobility 	totalCO2Emission 	544.20653745161
scalar RSUExampleScenario.node[49].appl 	meanClusterNodes 	0.94736842105263
scalar RSUExampleScenario.node[49].appl 	meanClusterHeadUtility 	1.8222004161244
scalar RSUExampleScenario.node[49].appl 	NumberofCH 	0.51351351351351
scalar RSUExampleScenario.node[49].appl 	NumberofON 	0.37837837837838
scalar RSUExampleScenario.node[49].appl 	NumberofFN 	0.10810810810811
scalar RSUExampleScenario.node[49].veinsmobility 	startTime 	118.1
scalar RSUExampleScenario.node[49].veinsmobility 	totalTime 	331.9
scalar RSUExampleScenario.node[49].veinsmobility 	stopTime 	450
scalar RSUExampleScenario.node[49].veinsmobility 	minSpeed 	0
scalar RSUExampleScenario.node[49].veinsmobility 	maxSpeed 	13.999998861076
scalar RSUExampleScenario.node[49].veinsmobility 	totalDistance 	1459.6393636064
scalar RSUExampleScenario.node[49].veinsmobility 	totalCO2Emission 	535.98820476989
scalar RSUExampleScenario.node[5].appl 	meanClusterNodes 	0.82352941176471
scalar RSUExampleScenario.node[5].appl 	meanClusterHeadUtility 	2.6607963667782
scalar RSUExampleScenario.node[5].appl 	NumberofCH 	0.45945945945946
scalar RSUExampleScenario.node[5].appl 	NumberofON 	0.54054054054054
scalar RSUExampleScenario.node[5].appl 	NumberofFN 	0
scalar RSUExampleScenario.node[5].veinsmobility 	startTime 	12.1
scalar RSUExampleScenario.node[5].veinsmobility 	totalTime 	437.9
scalar RSUExampleScenario.node[5].veinsmobility 	stopTime 	450
scalar RSUExampleScenario.node[5].veinsmobility 	minSpeed 	0
scalar RSUExampleScenario.node[5].veinsmobility 	maxSpeed 	13.99988138525
scalar RSUExampleScenario.node[5].veinsmobility 	totalDistance 	2918.7566576604
scalar RSUExampleScenario.node[5].veinsmobility 	totalCO2Emission 	786.67786454102
scalar RSUExampleScenario.node[50].appl 	meanClusterNodes 	0.22222222222222
scalar RSUExampleScenario.node[50].appl 	meanClusterHeadUtility 	1.8267596260278
scalar RSUExampleScenario.node[50].appl 	NumberofCH 	0.48648648648649
scalar RSUExampleScenario.node[50].appl 	NumberofON 	0.51351351351351
scalar RSUExampleScenario.node[50].appl 	NumberofFN 	0
scalar RSUExampleScenario.node[50].veinsmobility 	startTime 	120.6
scalar RSUExampleScenario.node[50].veinsmobility 	totalTime 	329.4
scalar RSUExampleScenario.node[50].veinsmobility 	stopTime 	450
scalar RSUExampleScenario.node[50].veinsmobility 	minSpeed 	0
scalar RSUExampleScenario.node[50].veinsmobility 	maxSpeed 	13.999961265849
scalar RSUExampleScenario.node[50].veinsmobility 	totalDistance 	1427.0462918915
scalar RSUExampleScenario.node[50].veinsmobility 	totalCO2Emission 	527.506250744
scalar RSUExampleScenario.node[51].appl 	meanClusterNodes 	1.7058823529412
scalar RSUExampleScenario.node[51].appl 	meanClusterHeadUtility 	1.8863795278446
scalar RSUExampleScenario.node[51].appl 	NumberofCH 	0.45945945945946
scalar RSUExampleScenario.node[51].appl 	NumberofON 	0.54054054054054
scalar RSUExampleScenario.node[51].appl 	NumberofFN 	0
scalar RSUExampleScenario.node[51].veinsmobility 	startTime 	123
scalar RSUExampleScenario.node[51].veinsmobility 	totalTime 	327
scalar RSUExampleScenario.node[51].veinsmobility 	stopTime 	450
scalar RSUExampleScenario.node[51].veinsmobility 	minSpeed 	0
scalar RSUExampleScenario.node[51].veinsmobility 	maxSpeed 	13.999446247178
scalar RSUExampleScenario.node[51].veinsmobility 	totalDistance 	1394.250714051
scalar RSUExampleScenario.node[51].veinsmobility 	totalCO2Emission 	524.079934562
scalar RSUExampleScenario.node[52].appl 	meanClusterNodes 	1.5
scalar RSUExampleScenario.node[52].appl 	meanClusterHeadUtility 	1.5807084733864
scalar RSUExampleScenario.node[52].appl 	NumberofCH 	0.54054054054054
scalar RSUExampleScenario.node[52].appl 	NumberofON 	0.45945945945946
scalar RSUExampleScenario.node[52].appl 	NumberofFN 	0
scalar RSUExampleScenario.node[52].veinsmobility 	startTime 	125.4
scalar RSUExampleScenario.node[52].veinsmobility 	totalTime 	324.6
scalar RSUExampleScenario.node[52].veinsmobility 	stopTime 	450
scalar RSUExampleScenario.node[52].veinsmobility 	minSpeed 	0
scalar RSUExampleScenario.node[52].veinsmobility 	maxSpeed 	13.999270064419
scalar RSUExampleScenario.node[52].veinsmobility 	totalDistance 	1360.2653391623
scalar RSUExampleScenario.node[52].veinsmobility 	totalCO2Emission 	517.45564042273
scalar RSUExampleScenario.node[53].appl 	meanClusterNodes 	1.7894736842105
scalar RSUExampleScenario.node[53].appl 	meanClusterHeadUtility 	1.7132552758184
scalar RSUExampleScenario.node[53].appl 	NumberofCH 	0.51351351351351
scalar RSUExampleScenario.node[53].appl 	NumberofON 	0.48648648648649
scalar RSUExampleScenario.node[53].appl 	NumberofFN 	0
scalar RSUExampleScenario.node[53].veinsmobility 	startTime 	127.8
scalar RSUExampleScenario.node[53].veinsmobility 	totalTime 	322.2
scalar RSUExampleScenario.node[53].veinsmobility 	stopTime 	450
scalar RSUExampleScenario.node[53].veinsmobility 	minSpeed 	0
scalar RSUExampleScenario.node[53].veinsmobility 	maxSpeed 	13.99971253827
scalar RSUExampleScenario.node[53].veinsmobility 	totalDistance 	1327.4283022543
scalar RSUExampleScenario.node[53].veinsmobility 	totalCO2Emission 	513.09405814123
scalar RSUExampleScenario.node[54].appl 	meanClusterNodes 	0.63157894736842
scalar RSUExampleScenario.node[54].appl 	meanClusterHeadUtility 	1.6634003179657
scalar RSUExampleScenario.node[54].appl 	NumberofCH 	0.51351351351351
scalar RSUExampleScenario.node[54].appl 	NumberofON 	0.48648648648649
scalar RSUExampleScenario.node[54].appl 	NumberofFN 	0
scalar RSUExampleScenario.node[54].veinsmobility 	startTime 	130.2
scalar RSUExampleScenario.node[54].veinsmobility 	totalTime 	319.8
scalar RSUExampleScenario.node[54].veinsmobility 	stopTime 	450
scalar RSUExampleScenario.node[54].veinsmobility 	minSpeed 	0
scalar RSUExampleScenario.node[54].veinsmobility 	maxSpeed 	13.999958101423
scalar RSUExampleScenario.node[54].veinsmobility 	totalDistance 	1292.4296632541
scalar RSUExampleScenario.node[54].veinsmobility 	totalCO2Emission 	506.11125475541
scalar RSUExampleScenario.node[55].appl 	meanClusterNodes 	1.3
scalar RSUExampleScenario.node[55].appl 	meanClusterHeadUtility 	1.5332248775473
scalar RSUExampleScenario.node[55].appl 	NumberofCH 	0.54054054054054
scalar RSUExampleScenario.node[55].appl 	NumberofON 	0.24324324324324
scalar RSUExampleScenario.node[55].appl 	NumberofFN 	0.21621621621622
scalar RSUExampleScenario.node[55].veinsmobility 	startTime 	132.6
scalar RSUExampleScenario.node[55].veinsmobility 	totalTime 	317.4
scalar RSUExampleScenario.node[55].veinsmobility 	stopTime 	450
scalar RSUExampleScenario.node[55].veinsmobility 	minSpeed 	0
scalar RSUExampleScenario.node[55].veinsmobility 	maxSpeed 	13.999231969588
scalar RSUExampleScenario.node[55].veinsmobility 	totalDistance 	1259.5361218449
scalar RSUExampleScenario.node[55].veinsmobility 	totalCO2Emission 	502.33166116458
scalar RSUExampleScenario.node[56].appl 	meanClusterNodes 	1.3684210526316
scalar RSUExampleScenario.node[56].appl 	meanClusterHeadUtility 	1.6222276780572
scalar RSUExampleScenario.node[56].appl 	NumberofCH 	0.51351351351351
scalar RSUExampleScenario.node[56].appl 	NumberofON 	0.43243243243243
scalar RSUExampleScenario.node[56].appl 	NumberofFN 	0.054054054054054
scalar RSUExampleScenario.node[56].veinsmobility 	startTime 	135
scalar RSUExampleScenario.node[56].veinsmobility 	totalTime 	315
scalar RSUExampleScenario.node[56].veinsmobility 	stopTime 	450
scalar RSUExampleScenario.node[56].veinsmobility 	minSpeed 	0
scalar RSUExampleScenario.node[56].veinsmobility 	maxSpeed 	13.999950390018
scalar RSUExampleScenario.node[56].veinsmobility 	totalDistance 	1224.1669114219
scalar RSUExampleScenario.node[56].veinsmobility 	totalCO2Emission 	496.67121321975
scalar RSUExampleScenario.node[57].appl 	meanClusterNodes 	1.6315789473684
scalar RSUExampleScenario.node[57].appl 	meanClusterHeadUtility 	1.6165962397966
scalar RSUExampleScenario.node[57].appl 	NumberofCH 	0.51351351351351
scalar RSUExampleScenario.node[57].appl 	NumberofON 	0.48648648648649
scalar RSUExampleScenario.node[57].appl 	NumberofFN 	0
scalar RSUExampleScenario.node[57].veinsmobility 	startTime 	137.4
scalar RSUExampleScenario.node[57].veinsmobility 	totalTime 	312.6
scalar RSUExampleScenario.node[57].veinsmobility 	stopTime 	450
scalar RSUExampleScenario.node[57].veinsmobility 	minSpeed 	0
scalar RSUExampleScenario.node[57].veinsmobility 	maxSpeed 	13.999946057217
scalar RSUExampleScenario.node[57].veinsmobility 	totalDistance 	1191.8104695021
scalar RSUExampleScenario.node[57].veinsmobility 	totalCO2Emission 	489.59733801578
scalar RSUExampleScenario.node[58].appl 	meanClusterNodes 	2.4444444444444
scalar RSUExampleScenario.node[58].appl 	meanClusterHeadUtility 	1.7854030621415
scalar RSUExampleScenario.node[58].appl 	NumberofCH 	0.48648648648649
scalar RSUExampleScenario.node[58].appl 	NumberofON 	0.51351351351351
scalar RSUExampleScenario.node[58].appl 	NumberofFN 	0
scalar RSUExampleScenario.node[58].veinsmobility 	startTime 	139.8
scalar RSUExampleScenario.node[58].veinsmobility 	totalTime 	310.2
scalar RSUExampleScenario.node[58].veinsmobility 	stopTime 	450
scalar RSUExampleScenario.node[58].veinsmobility 	minSpeed 	0
scalar RSUExampleScenario.node[58].veinsmobility 	maxSpeed 	13.999684674623
scalar RSUExampleScenario.node[58].veinsmobility 	totalDistance 	1157.9058726506
scalar RSUExampleScenario.node[58].veinsmobility 	totalCO2Emission 	485.07117730479
scalar RSUExampleScenario.node[59].appl 	meanClusterNodes 	1.0526315789474
scalar RSUExampleScenario.node[59].appl 	meanClusterHeadUtility 	1.7148244887142
scalar RSUExampleScenario.node[59].appl 	NumberofCH 	0.51351351351351
scalar RSUExampleScenario.node[59].appl 	NumberofON 	0.48648648648649
scalar RSUExampleScenario.node[59].appl 	NumberofFN 	0
scalar RSUExampleScenario.node[59].veinsmobility 	startTime 	142.2
scalar RSUExampleScenario.node[59].veinsmobility 	totalTime 	307.8
scalar RSUExampleScenario.node[59].veinsmobility 	stopTime 	450
scalar RSUExampleScenario.node[59].veinsmobility 	minSpeed 	0
scalar RSUExampleScenario.node[59].veinsmobility 	maxSpeed 	13.999937764576
scalar RSUExampleScenario.node[59].veinsmobility 	totalDistance 	1124.4622297205
scalar RSUExampleScenario.node[59].veinsmobility 	totalCO2Emission 	478.5994091341
scalar RSUExampleScenario.node[6].appl 	meanClusterNodes 	0.52631578947368
scalar RSUExampleScenario.node[6].appl 	meanClusterHeadUtility 	2.1373373976426
scalar RSUExampleScenario.node[6].appl 	NumberofCH 	0.51351351351351
scalar RSUExampleScenario.node[6].appl 	NumberofON 	0.48648648648649
scalar RSUExampleScenario.node[6].appl 	NumberofFN 	0
scalar RSUExampleScenario.node[6].veinsmobility 	startTime 	14.5
scalar RSUExampleScenario.node[6].veinsmobility 	totalTime 	435.5
scalar RSUExampleScenario.node[6].veinsmobility 	stopTime 	450
scalar RSUExampleScenario.node[6].veinsmobility 	minSpeed 	0
scalar RSUExampleScenario.node[6].veinsmobility 	maxSpeed 	13.999929841205
scalar RSUExampleScenario.node[6].veinsmobility 	totalDistance 	2902.3142119762
scalar RSUExampleScenario.node[6].veinsmobility 	totalCO2Emission 	779.2327123067
scalar RSUExampleScenario.node[60].appl 	meanClusterNodes 	0.52631578947368
scalar RSUExampleScenario.node[60].appl 	meanClusterHeadUtility 	1.8307394370198
scalar RSUExampleScenario.node[60].appl 	NumberofCH 	0.51351351351351
scalar RSUExampleScenario.node[60].appl 	NumberofON 	0.48648648648649
scalar RSUExampleScenario.node[60].appl 	NumberofFN 	0
scalar RSUExampleScenario.node[60].veinsmobility 	startTime 	144.7
scalar RSUExampleScenario.node[60].veinsmobility 	totalTime 	305.3
scalar RSUExampleScenario.node[60].veinsmobility 	stopTime 	450
scalar RSUExampleScenario.node[60].veinsmobility 	minSpeed 	0
scalar RSUExampleScenario.node[60].veinsmobility 	maxSpeed 	13.999990483988
scalar RSUExampleScenario.node[60].veinsmobility 	totalDistance 	1092.2552069141
scalar RSUExampleScenario.node[60].veinsmobility 	totalCO2Emission 	472.2042539285
scalar RSUExampleScenario.node[61].appl 	meanClusterNodes 	0.84210526315789
scalar RSUExampleScenario.node[61].appl 	meanClusterHeadUtility 	1.7956107391459
scalar RSUExampleScenario.node[61].appl 	NumberofCH 	0.51351351351351
scalar RSUExampleScenario.node[61].appl 	NumberofON 	0.48648648648649
scalar RSUExampleScenario.node[61].appl 	NumberofFN 	0
scalar RSUExampleScenario.node[61].veinsmobility 	startTime 	147.1
scalar RSUExampleScenario.node[61].veinsmobility 	totalTime 	302.9
scalar RSUExampleScenario.node[61].veinsmobility 	stopTime 	450
scalar RSUExampleScenario.node[61].veinsmobility 	minSpeed 	0
scalar RSUExampleScenario.node[61].veinsmobility 	maxSpeed 	13.999464786197
scalar RSUExampleScenario.node[61].veinsmobility 	totalDistance 	1057.7579941602
scalar RSUExampleScenario.node[61].veinsmobility 	totalCO2Emission 	467.01419564777
scalar RSUExampleScenario.node[62].appl 	meanClusterNodes 	0.44444444444444
scalar RSUExampleScenario.node[62].appl 	meanClusterHeadUtility 	2.0857946198196
scalar RSUExampleScenario.node[62].appl 	NumberofCH 	0.48648648648649
scalar RSUExampleScenario.node[62].appl 	NumberofON 	0.45945945945946
scalar RSUExampleScenario.node[62].appl 	NumberofFN 	0.054054054054054
scalar RSUExampleScenario.node[62].veinsmobility 	startTime 	149.5
scalar RSUExampleScenario.node[62].veinsmobility 	totalTime 	300.5
scalar RSUExampleScenario.node[62].veinsmobility 	stopTime 	450
scalar RSUExampleScenario.node[62].veinsmobility 	minSpeed 	0
scalar RSUExampleScenario.node[62].veinsmobility 	maxSpeed 	13.999760985598
scalar RSUExampleScenario.node[62].veinsmobility 	totalDistance 	1024.5239517344
scalar RSUExampleScenario.node[62].veinsmobility 	totalCO2Emission 	464.29545687908
scalar RSUExampleScenario.node[63].appl 	meanClusterNodes 	1.1111111111111
scalar RSUExampleScenario.node[63].appl 	meanClusterHeadUtility 	1.7925627388483
scalar RSUExampleScenario.node[63].appl 	NumberofCH 	0.48648648648649
scalar RSUExampleScenario.node[63].appl 	NumberofON 	0.51351351351351
scalar RSUExampleScenario.node[63].appl 	NumberofFN 	0
scalar RSUExampleScenario.node[63].veinsmobility 	startTime 	151.9
scalar RSUExampleScenario.node[63].veinsmobility 	totalTime 	298.1
scalar RSUExampleScenario.node[63].veinsmobility 	stopTime 	450
scalar RSUExampleScenario.node[63].veinsmobility 	minSpeed 	0
scalar RSUExampleScenario.node[63].veinsmobility 	maxSpeed 	13.999277095278
scalar RSUExampleScenario.node[63].veinsmobility 	totalDistance 	985.15497792885
scalar RSUExampleScenario.node[63].veinsmobility 	totalCO2Emission 	448.64969017447
scalar RSUExampleScenario.node[64].appl 	meanClusterNodes 	1
scalar RSUExampleScenario.node[64].appl 	meanClusterHeadUtility 	2.2480200738309
scalar RSUExampleScenario.node[64].appl 	NumberofCH 	0.45945945945946
scalar RSUExampleScenario.node[64].appl 	NumberofON 	0.48648648648649
scalar RSUExampleScenario.node[64].appl 	NumberofFN 	0.054054054054054
scalar RSUExampleScenario.node[64].veinsmobility 	startTime 	154.3
scalar RSUExampleScenario.node[64].veinsmobility 	totalTime 	295.7
scalar RSUExampleScenario.node[64].veinsmobility 	stopTime 	450
scalar RSUExampleScenario.node[64].veinsmobility 	minSpeed 	0
scalar RSUExampleScenario.node[64].veinsmobility 	maxSpeed 	13.99823834578
scalar RSUExampleScenario.node[64].veinsmobility 	totalDistance 	953.60091026784
scalar RSUExampleScenario.node[64].veinsmobility 	totalCO2Emission 	434.95333002128
scalar RSUExampleScenario.node[65].appl 	meanClusterNodes 	1.5
scalar RSUExampleScenario.node[65].appl 	meanClusterHeadUtility 	1.5396828335712
scalar RSUExampleScenario.node[65].appl 	NumberofCH 	0.54054054054054
scalar RSUExampleScenario.node[65].appl 	NumberofON 	0.43243243243243
scalar RSUExampleScenario.node[65].appl 	NumberofFN 	0.027027027027027
scalar RSUExampleScenario.node[65].veinsmobility 	startTime 	156.7
scalar RSUExampleScenario.node[65].veinsmobility 	totalTime 	293.3
scalar RSUExampleScenario.node[65].veinsmobility 	stopTime 	450
scalar RSUExampleScenario.node[65].veinsmobility 	minSpeed 	0
scalar RSUExampleScenario.node[65].veinsmobility 	maxSpeed 	13.999332865702
scalar RSUExampleScenario.node[65].veinsmobility 	totalDistance 	940.41722963561
scalar RSUExampleScenario.node[65].veinsmobility 	totalCO2Emission 	427.82019758385
scalar RSUExampleScenario.node[66].appl 	meanClusterNodes 	0.73684210526316
scalar RSUExampleScenario.node[66].appl 	meanClusterHeadUtility 	1.6479729388385
scalar RSUExampleScenario.node[66].appl 	NumberofCH 	0.51351351351351
scalar RSUExampleScenario.node[66].appl 	NumberofON 	0.43243243243243
scalar RSUExampleScenario.node[66].appl 	NumberofFN 	0.054054054054054
scalar RSUExampleScenario.node[66].veinsmobility 	startTime 	159.1
scalar RSUExampleScenario.node[66].veinsmobility 	totalTime 	290.9
scalar RSUExampleScenario.node[66].veinsmobility 	stopTime 	450
scalar RSUExampleScenario.node[66].veinsmobility 	minSpeed 	0
scalar RSUExampleScenario.node[66].veinsmobility 	maxSpeed 	13.998868520025
scalar RSUExampleScenario.node[66].veinsmobility 	totalDistance 	928.3347125854
scalar RSUExampleScenario.node[66].veinsmobility 	totalCO2Emission 	423.10515169731
scalar RSUExampleScenario.node[67].appl 	meanClusterNodes 	0.73684210526316
scalar RSUExampleScenario.node[67].appl 	meanClusterHeadUtility 	1.9706519679669
scalar RSUExampleScenario.node[67].appl 	NumberofCH 	0.51351351351351
scalar RSUExampleScenario.node[67].appl 	NumberofON 	0.40540540540541
scalar RSUExampleScenario.node[67].appl 	NumberofFN 	0.081081081081081
scalar RSUExampleScenario.node[67].veinsmobility 	startTime 	161.5
scalar RSUExampleScenario.node[67].veinsmobility 	totalTime 	288.5
scalar RSUExampleScenario.node[67].veinsmobility 	stopTime 	450
scalar RSUExampleScenario.node[67].veinsmobility 	minSpeed 	0
scalar RSUExampleScenario.node[67].veinsmobility 	maxSpeed 	13.999554545176
scalar RSUExampleScenario.node[67].veinsmobility 	totalDistance 	913.12774001755
scalar RSUExampleScenario.node[67].veinsmobility 	totalCO2Emission 	422.63571000283
scalar RSUExampleScenario.node[68].appl 	meanClusterNodes 	0.38888888888889
scalar RSUExampleScenario.node[68].appl 	meanClusterHeadUtility 	1.8950436086077
scalar RSUExampleScenario.node[68].appl 	NumberofCH 	0.48648648648649
scalar RSUExampleScenario.node[68].appl 	NumberofON 	0.51351351351351
scalar RSUExampleScenario.node[68].appl 	NumberofFN 	0
scalar RSUExampleScenario.node[68].veinsmobility 	startTime 	163.9
scalar RSUExampleScenario.node[68].veinsmobility 	totalTime 	286.1
scalar RSUExampleScenario.node[68].veinsmobility 	stopTime 	450
scalar RSUExampleScenario.node[68].veinsmobility 	minSpeed 	0
scalar RSUExampleScenario.node[68].veinsmobility 	maxSpeed 	13.999955239645
scalar RSUExampleScenario.node[68].veinsmobility 	totalDistance 	892.22038504648
scalar RSUExampleScenario.node[68].veinsmobility 	totalCO2Emission 	420.09532210181
scalar RSUExampleScenario.node[69].appl 	meanClusterNodes 	0.55
scalar RSUExampleScenario.node[69].appl 	meanClusterHeadUtility 	1.5518630411083
scalar RSUExampleScenario.node[69].appl 	NumberofCH 	0.54054054054054
scalar RSUExampleScenario.node[69].appl 	NumberofON 	0.45945945945946
scalar RSUExampleScenario.node[69].appl 	NumberofFN 	0
scalar RSUExampleScenario.node[69].veinsmobility 	startTime 	166.3
scalar RSUExampleScenario.node[69].veinsmobility 	totalTime 	283.7
scalar RSUExampleScenario.node[69].veinsmobility 	stopTime 	450
scalar RSUExampleScenario.node[69].veinsmobility 	minSpeed 	0
scalar RSUExampleScenario.node[69].veinsmobility 	maxSpeed 	13.998296016762
scalar RSUExampleScenario.node[69].veinsmobility 	totalDistance 	860.65766219172
scalar RSUExampleScenario.node[69].veinsmobility 	totalCO2Emission 	413.32696164464
scalar RSUExampleScenario.node[7].appl 	meanClusterNodes 	1.0555555555556
scalar RSUExampleScenario.node[7].appl 	meanClusterHeadUtility 	2.2355841976529
scalar RSUExampleScenario.node[7].appl 	NumberofCH 	0.48648648648649
scalar RSUExampleScenario.node[7].appl 	NumberofON 	0.24324324324324
scalar RSUExampleScenario.node[7].appl 	NumberofFN 	0.27027027027027
scalar RSUExampleScenario.node[7].veinsmobility 	startTime 	16.9
scalar RSUExampleScenario.node[7].veinsmobility 	totalTime 	433.1
scalar RSUExampleScenario.node[7].veinsmobility 	stopTime 	450
scalar RSUExampleScenario.node[7].veinsmobility 	minSpeed 	0
scalar RSUExampleScenario.node[7].veinsmobility 	maxSpeed 	13.999974094389
scalar RSUExampleScenario.node[7].veinsmobility 	totalDistance 	2890.0507669228
scalar RSUExampleScenario.node[7].veinsmobility 	totalCO2Emission 	779.35947114243
scalar RSUExampleScenario.node[70].appl 	meanClusterNodes 	0.52941176470588
scalar RSUExampleScenario.node[70].appl 	meanClusterHeadUtility 	1.8678557629193
scalar RSUExampleScenario.node[70].appl 	NumberofCH 	0.45945945945946
scalar RSUExampleScenario.node[70].appl 	NumberofON 	0.54054054054054
scalar RSUExampleScenario.node[70].appl 	NumberofFN 	0
scalar RSUExampleScenario.node[70].veinsmobility 	startTime 	168.8
scalar RSUExampleScenario.node[70].veinsmobility 	totalTime 	281.2
scalar RSUExampleScenario.node[70].veinsmobility 	stopTime 	450
scalar RSUExampleScenario.node[70].veinsmobility 	minSpeed 	0
scalar RSUExampleScenario.node[70].veinsmobility 	maxSpeed 	13.999948279855
scalar RSUExampleScenario.node[70].veinsmobility 	totalDistance 	825.04352687423
scalar RSUExampleScenario.node[70].veinsmobility 	totalCO2Emission 	407.65854807665
scalar RSUExampleScenario.node[71].appl 	meanClusterNodes 	0.61111111111111
scalar RSUExampleScenario.node[71].appl 	meanClusterHeadUtility 	2.0510372044679
scalar RSUExampleScenario.node[71].appl 	NumberofCH 	0.48648648648649
scalar RSUExampleScenario.node[71].appl 	NumberofON 	0.51351351351351
scalar RSUExampleScenario.node[71].appl 	NumberofFN 	0
scalar RSUExampleScenario.node[71].veinsmobility 	startTime 	171.2
scalar RSUExampleScenario.node[71].veinsmobility 	totalTime 	278.8
scalar RSUExampleScenario.node[71].veinsmobility 	stopTime 	450
scalar RSUExampleScenario.node[71].veinsmobility 	minSpeed 	0
scalar RSUExampleScenario.node[71].veinsmobility 	maxSpeed 	13.99985455117
scalar RSUExampleScenario.node[71].veinsmobility 	totalDistance 	793.42513321644
scalar RSUExampleScenario.node[71].veinsmobility 	totalCO2Emission 	402.53968360467
scalar RSUExampleScenario.node[72].appl 	meanClusterNodes 	0.47368421052632
scalar RSUExampleScenario.node[72].appl 	meanClusterHeadUtility 	1.8766354301311
scalar RSUExampleScenario.node[72].appl 	NumberofCH 	0.51351351351351
scalar RSUExampleScenario.node[72].appl 	NumberofON 	0.48648648648649
scalar RSUExampleScenario.node[72].appl 	NumberofFN 	0
scalar RSUExampleScenario.node[72].veinsmobility 	startTime 	173.6
scalar RSUExampleScenario.node[72].veinsmobility 	totalTime 	276.4
scalar RSUExampleScenario.node[72].veinsmobility 	stopTime 	450
scalar RSUExampleScenario.node[72].veinsmobility 	minSpeed 	0
scalar RSUExampleScenario.node[72].veinsmobility 	maxSpeed 	13.999792698
scalar RSUExampleScenario.node[72].veinsmobility 	totalDistance 	758.01288963465
scalar RSUExampleScenario.node[72].veinsmobility 	totalCO2Emission 	397.4361973307
scalar RSUExampleScenario.node[73].appl 	meanClusterNodes 	1
scalar RSUExampleScenario.node[73].appl 	meanClusterHeadUtility 	1.8556770523644
scalar RSUExampleScenario.node[73].appl 	NumberofCH 	0.48648648648649
scalar RSUExampleScenario.node[73].appl 	NumberofON 	0.51351351351351
scalar RSUExampleScenario.node[73].appl 	NumberofFN 	0
scalar RSUExampleScenario.node[73].veinsmobility 	startTime 	176
scalar RSUExampleScenario.node[73].veinsmobility 	totalTime 	274
scalar RSUExampleScenario.node[73].veinsmobility 	stopTime 	450
scalar RSUExampleScenario.node[73].veinsmobility 	minSpeed 	0
scalar RSUExampleScenario.node[73].veinsmobility 	maxSpeed 	13.999723541681
scalar RSUExampleScenario.node[73].veinsmobility 	totalDistance 	723.89478990512
scalar RSUExampleScenario.node[73].veinsmobility 	totalCO2Emission 	389.07950783522
scalar RSUExampleScenario.node[74].appl 	meanClusterNodes 	0.73684210526316
scalar RSUExampleScenario.node[74].appl 	meanClusterHeadUtility 	1.766159945703
scalar RSUExampleScenario.node[74].appl 	NumberofCH 	0.51351351351351
scalar RSUExampleScenario.node[74].appl 	NumberofON 	0.37837837837838
scalar RSUExampleScenario.node[74].appl 	NumberofFN 	0.10810810810811
scalar RSUExampleScenario.node[74].veinsmobility 	startTime 	178.4
scalar RSUExampleScenario.node[74].veinsmobility 	totalTime 	271.6
scalar RSUExampleScenario.node[74].veinsmobility 	stopTime 	450
scalar RSUExampleScenario.node[74].veinsmobility 	minSpeed 	0
scalar RSUExampleScenario.node[74].veinsmobility 	maxSpeed 	13.999890380411
scalar RSUExampleScenario.node[74].veinsmobility 	totalDistance 	690.42655682308
scalar RSUExampleScenario.node[74].veinsmobility 	totalCO2Emission 	383.81776599285
scalar RSUExampleScenario.node[75].appl 	meanClusterNodes 	1.2631578947368
scalar RSUExampleScenario.node[75].appl 	meanClusterHeadUtility 	1.7055480208869
scalar RSUExampleScenario.node[75].appl 	NumberofCH 	0.51351351351351
scalar RSUExampleScenario.node[75].appl 	NumberofON 	0.48648648648649
scalar RSUExampleScenario.node[75].appl 	NumberofFN 	0
scalar RSUExampleScenario.node[75].veinsmobility 	startTime 	180.8
scalar RSUExampleScenario.node[75].veinsmobility 	totalTime 	269.2
scalar RSUExampleScenario.node[75].veinsmobility 	stopTime 	450
scalar RSUExampleScenario.node[75].veinsmobility 	minSpeed 	0
scalar RSUExampleScenario.node[75].veinsmobility 	maxSpeed 	13.999270749444
scalar RSUExampleScenario.node[75].veinsmobility 	totalDistance 	658.10486069805
scalar RSUExampleScenario.node[75].veinsmobility 	totalCO2Emission 	378.21907947091
scalar RSUExampleScenario.node[76].appl 	meanClusterNodes 	1
scalar RSUExampleScenario.node[76].appl 	meanClusterHeadUtility 	1.9135892530747
scalar RSUExampleScenario.node[76].appl 	NumberofCH 	0.48648648648649
scalar RSUExampleScenario.node[76].appl 	NumberofON 	0.51351351351351
scalar RSUExampleScenario.node[76].appl 	NumberofFN 	0
scalar RSUExampleScenario.node[76].veinsmobility 	startTime 	183.2
scalar RSUExampleScenario.node[76].veinsmobility 	totalTime 	266.8
scalar RSUExampleScenario.node[76].veinsmobility 	stopTime 	450
scalar RSUExampleScenario.node[76].veinsmobility 	minSpeed 	0
scalar RSUExampleScenario.node[76].veinsmobility 	maxSpeed 	13.998986477444
scalar RSUExampleScenario.node[76].veinsmobility 	totalDistance 	625.10788609501
scalar RSUExampleScenario.node[76].veinsmobility 	totalCO2Emission 	372.86930141803
scalar RSUExampleScenario.node[77].appl 	meanClusterNodes 	0.88888888888889
scalar RSUExampleScenario.node[77].appl 	meanClusterHeadUtility 	2.1491624118766
scalar RSUExampleScenario.node[77].appl 	NumberofCH 	0.48648648648649
scalar RSUExampleScenario.node[77].appl 	NumberofON 	0.51351351351351
scalar RSUExampleScenario.node[77].appl 	NumberofFN 	0
scalar RSUExampleScenario.node[77].veinsmobility 	startTime 	185.6
scalar RSUExampleScenario.node[77].veinsmobility 	totalTime 	264.4
scalar RSUExampleScenario.node[77].veinsmobility 	stopTime 	450
scalar RSUExampleScenario.node[77].veinsmobility 	minSpeed 	0
scalar RSUExampleScenario.node[77].veinsmobility 	maxSpeed 	13.999334234209
scalar RSUExampleScenario.node[77].veinsmobility 	totalDistance 	590.25754009578
scalar RSUExampleScenario.node[77].veinsmobility 	totalCO2Emission 	367.2134670429
scalar RSUExampleScenario.node[78].appl 	meanClusterNodes 	1.4444444444444
scalar RSUExampleScenario.node[78].appl 	meanClusterHeadUtility 	1.8769774847308
scalar RSUExampleScenario.node[78].appl 	NumberofCH 	0.48648648648649
scalar RSUExampleScenario.node[78].appl 	NumberofON 	0.48648648648649
scalar RSUExampleScenario.node[78].appl 	NumberofFN 	0.027027027027027
scalar RSUExampleScenario.node[78].veinsmobility 	startTime 	188
scalar RSUExampleScenario.node[78].veinsmobility 	totalTime 	262
scalar RSUExampleScenario.node[78].veinsmobility 	stopTime 	450
scalar RSUExampleScenario.node[78].veinsmobility 	minSpeed 	0
scalar RSUExampleScenario.node[78].veinsmobility 	maxSpeed 	13.998954506009
scalar RSUExampleScenario.node[78].veinsmobility 	totalDistance 	557.57223086635
scalar RSUExampleScenario.node[78].veinsmobility 	totalCO2Emission 	361.82504818412
scalar RSUExampleScenario.node[79].appl 	meanClusterNodes 	0.77777777777778
scalar RSUExampleScenario.node[79].appl 	meanClusterHeadUtility 	2.0136420251014
scalar RSUExampleScenario.node[79].appl 	NumberofCH 	0.48648648648649
scalar RSUExampleScenario.node[79].appl 	NumberofON 	0.48648648648649
scalar RSUExampleScenario.node[79].appl 	NumberofFN 	0.027027027027027
scalar RSUExampleScenario.node[79].veinsmobility 	startTime 	190.4
scalar RSUExampleScenario.node[79].veinsmobility 	totalTime 	259.6
scalar RSUExampleScenario.node[79].veinsmobility 	stopTime 	450
scalar RSUExampleScenario.node[79].veinsmobility 	minSpeed 	0
scalar RSUExampleScenario.node[79].veinsmobility 	maxSpeed 	13.999969620479
scalar RSUExampleScenario.node[79].veinsmobility 	totalDistance 	525.10693938791
scalar RSUExampleScenario.node[79].veinsmobility 	totalCO2Emission 	358.46170369812
scalar RSUExampleScenario.node[8].appl 	meanClusterNodes 	0.88888888888889
scalar RSUExampleScenario.node[8].appl 	meanClusterHeadUtility 	1.8709109723574
scalar RSUExampleScenario.node[8].appl 	NumberofCH 	0.48648648648649
scalar RSUExampleScenario.node[8].appl 	NumberofON 	0.35135135135135
scalar RSUExampleScenario.node[8].appl 	NumberofFN 	0.16216216216216
scalar RSUExampleScenario.node[8].veinsmobility 	startTime 	19.3
scalar RSUExampleScenario.node[8].veinsmobility 	totalTime 	430.7
scalar RSUExampleScenario.node[8].veinsmobility 	stopTime 	450
scalar RSUExampleScenario.node[8].veinsmobility 	minSpeed 	0
scalar RSUExampleScenario.node[8].veinsmobility 	maxSpeed 	13.999961595105
scalar RSUExampleScenario.node[8].veinsmobility 	totalDistance 	2861.2523149174
scalar RSUExampleScenario.node[8].veinsmobility 	totalCO2Emission 	773.80427436192
scalar RSUExampleScenario.node[80].appl 	meanClusterNodes 	1.3157894736842
scalar RSUExampleScenario.node[80].appl 	meanClusterHeadUtility 	2.0383265194768
scalar RSUExampleScenario.node[80].appl 	NumberofCH 	0.51351351351351
scalar RSUExampleScenario.node[80].appl 	NumberofON 	0.43243243243243
scalar RSUExampleScenario.node[80].appl 	NumberofFN 	0.054054054054054
scalar RSUExampleScenario.node[80].veinsmobility 	startTime 	192.9
scalar RSUExampleScenario.node[80].veinsmobility 	totalTime 	257.1
scalar RSUExampleScenario.node[80].veinsmobility 	stopTime 	450
scalar RSUExampleScenario.node[80].veinsmobility 	minSpeed 	0
scalar RSUExampleScenario.node[80].veinsmobility 	maxSpeed 	13.999008798327
scalar RSUExampleScenario.node[80].veinsmobility 	totalDistance 	490.65414346221
scalar RSUExampleScenario.node[80].veinsmobility 	totalCO2Emission 	349.97263662499
scalar RSUExampleScenario.node[81].appl 	meanClusterNodes 	0.88888888888889
scalar RSUExampleScenario.node[81].appl 	meanClusterHeadUtility 	1.9114387396015
scalar RSUExampleScenario.node[81].appl 	NumberofCH 	0.48648648648649
scalar RSUExampleScenario.node[81].appl 	NumberofON 	0.32432432432432
scalar RSUExampleScenario.node[81].appl 	NumberofFN 	0.18918918918919
scalar RSUExampleScenario.node[81].veinsmobility 	startTime 	195.3
scalar RSUExampleScenario.node[81].veinsmobility 	totalTime 	254.7
scalar RSUExampleScenario.node[81].veinsmobility 	stopTime 	450
scalar RSUExampleScenario.node[81].veinsmobility 	minSpeed 	0
scalar RSUExampleScenario.node[81].veinsmobility 	maxSpeed 	13.998748909731
scalar RSUExampleScenario.node[81].veinsmobility 	totalDistance 	458.25197508161
scalar RSUExampleScenario.node[81].veinsmobility 	totalCO2Emission 	345.15520396526
scalar RSUExampleScenario.node[82].appl 	meanClusterNodes 	0.44444444444444
scalar RSUExampleScenario.node[82].appl 	meanClusterHeadUtility 	1.9601221050338
scalar RSUExampleScenario.node[82].appl 	NumberofCH 	0.48648648648649
scalar RSUExampleScenario.node[82].appl 	NumberofON 	0.51351351351351
scalar RSUExampleScenario.node[82].appl 	NumberofFN 	0
scalar RSUExampleScenario.node[82].veinsmobility 	startTime 	197.7
scalar RSUExampleScenario.node[82].veinsmobility 	totalTime 	252.3
scalar RSUExampleScenario.node[82].veinsmobility 	stopTime 	450
scalar RSUExampleScenario.node[82].veinsmobility 	minSpeed 	0
scalar RSUExampleScenario.node[82].veinsmobility 	maxSpeed 	13.999262403138
scalar RSUExampleScenario.node[82].veinsmobility 	totalDistance 	424.80702635089
scalar RSUExampleScenario.node[82].veinsmobility 	totalCO2Emission 	339.63123416617
scalar RSUExampleScenario.node[83].appl 	meanClusterNodes 	0.88888888888889
scalar RSUExampleScenario.node[83].appl 	meanClusterHeadUtility 	1.8576512634189
scalar RSUExampleScenario.node[83].appl 	NumberofCH 	0.48648648648649
scalar RSUExampleScenario.node[83].appl 	NumberofON 	0.51351351351351
scalar RSUExampleScenario.node[83].appl 	NumberofFN 	0
scalar RSUExampleScenario.node[83].veinsmobility 	startTime 	200.1
scalar RSUExampleScenario.node[83].veinsmobility 	totalTime 	249.9
scalar RSUExampleScenario.node[83].veinsmobility 	stopTime 	450
scalar RSUExampleScenario.node[83].veinsmobility 	minSpeed 	0
scalar RSUExampleScenario.node[83].veinsmobility 	maxSpeed 	13.997358515395
scalar RSUExampleScenario.node[83].veinsmobility 	totalDistance 	390.38852177282
scalar RSUExampleScenario.node[83].veinsmobility 	totalCO2Emission 	334.53820782265
scalar RSUExampleScenario.node[84].appl 	meanClusterNodes 	1.3333333333333
scalar RSUExampleScenario.node[84].appl 	meanClusterHeadUtility 	1.9961372088985
scalar RSUExampleScenario.node[84].appl 	NumberofCH 	0.48648648648649
scalar RSUExampleScenario.node[84].appl 	NumberofON 	0.51351351351351
scalar RSUExampleScenario.node[84].appl 	NumberofFN 	0
scalar RSUExampleScenario.node[84].veinsmobility 	startTime 	202.5
scalar RSUExampleScenario.node[84].veinsmobility 	totalTime 	247.5
scalar RSUExampleScenario.node[84].veinsmobility 	stopTime 	450
scalar RSUExampleScenario.node[84].veinsmobility 	minSpeed 	0
scalar RSUExampleScenario.node[84].veinsmobility 	maxSpeed 	13.99841231474
scalar RSUExampleScenario.node[84].veinsmobility 	totalDistance 	357.18275470324
scalar RSUExampleScenario.node[84].veinsmobility 	totalCO2Emission 	327.92944062508
scalar RSUExampleScenario.node[85].appl 	meanClusterNodes 	0.77777777777778
scalar RSUExampleScenario.node[85].appl 	meanClusterHeadUtility 	1.9087651720683
scalar RSUExampleScenario.node[85].appl 	NumberofCH 	0.48648648648649
scalar RSUExampleScenario.node[85].appl 	NumberofON 	0.27027027027027
scalar RSUExampleScenario.node[85].appl 	NumberofFN 	0.24324324324324
scalar RSUExampleScenario.node[85].veinsmobility 	startTime 	204.9
scalar RSUExampleScenario.node[85].veinsmobility 	totalTime 	245.1
scalar RSUExampleScenario.node[85].veinsmobility 	stopTime 	450
scalar RSUExampleScenario.node[85].veinsmobility 	minSpeed 	0
scalar RSUExampleScenario.node[85].veinsmobility 	maxSpeed 	13.996678824909
scalar RSUExampleScenario.node[85].veinsmobility 	totalDistance 	320.60770237509
scalar RSUExampleScenario.node[85].veinsmobility 	totalCO2Emission 	322.15490432488
scalar RSUExampleScenario.node[86].appl 	meanClusterNodes 	0.58823529411765
scalar RSUExampleScenario.node[86].appl 	meanClusterHeadUtility 	2.2718362368471
scalar RSUExampleScenario.node[86].appl 	NumberofCH 	0.45945945945946
scalar RSUExampleScenario.node[86].appl 	NumberofON 	0.54054054054054
scalar RSUExampleScenario.node[86].appl 	NumberofFN 	0
scalar RSUExampleScenario.node[86].veinsmobility 	startTime 	207.3
scalar RSUExampleScenario.node[86].veinsmobility 	totalTime 	242.7
scalar RSUExampleScenario.node[86].veinsmobility 	stopTime 	450
scalar RSUExampleScenario.node[86].veinsmobility 	minSpeed 	0
scalar RSUExampleScenario.node[86].veinsmobility 	maxSpeed 	13.758394713935
scalar RSUExampleScenario.node[86].veinsmobility 	totalDistance 	285.