version 2
run statisticLeach-151-20150323-03:48:03-9888
attr c 22
attr configname statisticLeach
attr datetime 20150323-03:48:03
attr experiment statisticLeach
attr inifile omnetpp.ini
attr iterationvars "$p=1/20, $c=22"
attr iterationvars2 "$p=1/20, $c=22, $repetition=1"
attr measurement "$p=1/20, $c=22"
attr network RSUExampleScenario
attr p 1/20
attr processid 9888
attr repetition 1
attr replication #1
attr resultdir results
attr runnumber 151
attr seedset 151

scalar . 	c 	22
scalar RSUExampleScenario.node[0].appl 	meanClusterNodes 	0
scalar RSUExampleScenario.node[0].appl 	meanClusterHeadUtility 	0
scalar RSUExampleScenario.node[0].appl 	NumberofCH 	0
scalar RSUExampleScenario.node[0].appl 	NumberofON 	0.43243243243243
scalar RSUExampleScenario.node[0].appl 	NumberofFN 	0.56756756756757
scalar RSUExampleScenario.node[0].veinsmobility 	startTime 	0.1
scalar RSUExampleScenario.node[0].veinsmobility 	totalTime 	449.9
scalar RSUExampleScenario.node[0].veinsmobility 	stopTime 	450
scalar RSUExampleScenario.node[0].veinsmobility 	minSpeed 	0
scalar RSUExampleScenario.node[0].veinsmobility 	maxSpeed 	13.999920977619
scalar RSUExampleScenario.node[0].veinsmobility 	totalDistance 	3128.2889389946
scalar RSUExampleScenario.node[0].veinsmobility 	totalCO2Emission 	837.90326210532
scalar RSUExampleScenario.node[1].appl 	meanClusterNodes 	6.5
scalar RSUExampleScenario.node[1].appl 	meanClusterHeadUtility 	8.8569950410786
scalar RSUExampleScenario.node[1].appl 	NumberofCH 	0.10810810810811
scalar RSUExampleScenario.node[1].appl 	NumberofON 	0.24324324324324
scalar RSUExampleScenario.node[1].appl 	NumberofFN 	0.64864864864865
scalar RSUExampleScenario.node[1].veinsmobility 	startTime 	2.5
scalar RSUExampleScenario.node[1].veinsmobility 	totalTime 	447.5
scalar RSUExampleScenario.node[1].veinsmobility 	stopTime 	450
scalar RSUExampleScenario.node[1].veinsmobility 	minSpeed 	0
scalar RSUExampleScenario.node[1].veinsmobility 	maxSpeed 	13.999935605743
scalar RSUExampleScenario.node[1].veinsmobility 	totalDistance 	3077.8995242671
scalar RSUExampleScenario.node[1].veinsmobility 	totalCO2Emission 	827.95704131219
scalar RSUExampleScenario.node[10].appl 	meanClusterNodes 	0
scalar RSUExampleScenario.node[10].appl 	meanClusterHeadUtility 	0
scalar RSUExampleScenario.node[10].appl 	NumberofCH 	0
scalar RSUExampleScenario.node[10].appl 	NumberofON 	0.40540540540541
scalar RSUExampleScenario.node[10].appl 	NumberofFN 	0.59459459459459
scalar RSUExampleScenario.node[10].veinsmobility 	startTime 	24.2
scalar RSUExampleScenario.node[10].veinsmobility 	totalTime 	425.8
scalar RSUExampleScenario.node[10].veinsmobility 	stopTime 	450
scalar RSUExampleScenario.node[10].veinsmobility 	minSpeed 	0
scalar RSUExampleScenario.node[10].veinsmobility 	maxSpeed 	13.999959552076
scalar RSUExampleScenario.node[10].veinsmobility 	totalDistance 	2792.8069258585
scalar RSUExampleScenario.node[10].veinsmobility 	totalCO2Emission 	757.86482614988
scalar RSUExampleScenario.node[11].appl 	meanClusterNodes 	0
scalar RSUExampleScenario.node[11].appl 	meanClusterHeadUtility 	0
scalar RSUExampleScenario.node[11].appl 	NumberofCH 	0
scalar RSUExampleScenario.node[11].appl 	NumberofON 	0.7027027027027
scalar RSUExampleScenario.node[11].appl 	NumberofFN 	0.2972972972973
scalar RSUExampleScenario.node[11].veinsmobility 	startTime 	26.6
scalar RSUExampleScenario.node[11].veinsmobility 	totalTime 	423.4
scalar RSUExampleScenario.node[11].veinsmobility 	stopTime 	450
scalar RSUExampleScenario.node[11].veinsmobility 	minSpeed 	0
scalar RSUExampleScenario.node[11].veinsmobility 	maxSpeed 	13.999977247042
scalar RSUExampleScenario.node[11].veinsmobility 	totalDistance 	2752.8638602972
scalar RSUExampleScenario.node[11].veinsmobility 	totalCO2Emission 	751.73637494036
scalar RSUExampleScenario.node[12].appl 	meanClusterNodes 	0
scalar RSUExampleScenario.node[12].appl 	meanClusterHeadUtility 	0
scalar RSUExampleScenario.node[12].appl 	NumberofCH 	0
scalar RSUExampleScenario.node[12].appl 	NumberofON 	0.64864864864865
scalar RSUExampleScenario.node[12].appl 	NumberofFN 	0.35135135135135
scalar RSUExampleScenario.node[12].veinsmobility 	startTime 	29
scalar RSUExampleScenario.node[12].veinsmobility 	totalTime 	421
scalar RSUExampleScenario.node[12].veinsmobility 	stopTime 	450
scalar RSUExampleScenario.node[12].veinsmobility 	minSpeed 	0
scalar RSUExampleScenario.node[12].veinsmobility 	maxSpeed 	13.99995610761
scalar RSUExampleScenario.node[12].veinsmobility 	totalDistance 	2722.4194049365
scalar RSUExampleScenario.node[12].veinsmobility 	totalCO2Emission 	746.59468848634
scalar RSUExampleScenario.node[13].appl 	meanClusterNodes 	8
scalar RSUExampleScenario.node[13].appl 	meanClusterHeadUtility 	16.40721452643
scalar RSUExampleScenario.node[13].appl 	NumberofCH 	0.054054054054054
scalar RSUExampleScenario.node[13].appl 	NumberofON 	0.35135135135135
scalar RSUExampleScenario.node[13].appl 	NumberofFN 	0.59459459459459
scalar RSUExampleScenario.node[13].veinsmobility 	startTime 	31.4
scalar RSUExampleScenario.node[13].veinsmobility 	totalTime 	418.6
scalar RSUExampleScenario.node[13].veinsmobility 	stopTime 	450
scalar RSUExampleScenario.node[13].veinsmobility 	minSpeed 	0
scalar RSUExampleScenario.node[13].veinsmobility 	maxSpeed 	13.999854186319
scalar RSUExampleScenario.node[13].veinsmobility 	totalDistance 	2680.6758273811
scalar RSUExampleScenario.node[13].veinsmobility 	totalCO2Emission 	741.49281147758
scalar RSUExampleScenario.node[14].appl 	meanClusterNodes 	0
scalar RSUExampleScenario.node[14].appl 	meanClusterHeadUtility 	0
scalar RSUExampleScenario.node[14].appl 	NumberofCH 	0
scalar RSUExampleScenario.node[14].appl 	NumberofON 	0.64864864864865
scalar RSUExampleScenario.node[14].appl 	NumberofFN 	0.35135135135135
scalar RSUExampleScenario.node[14].veinsmobility 	startTime 	33.8
scalar RSUExampleScenario.node[14].veinsmobility 	totalTime 	416.2
scalar RSUExampleScenario.node[14].veinsmobility 	stopTime 	450
scalar RSUExampleScenario.node[14].veinsmobility 	minSpeed 	0
scalar RSUExampleScenario.node[14].veinsmobility 	maxSpeed 	13.99995291461
scalar RSUExampleScenario.node[14].veinsmobility 	totalDistance 	2654.015631587
scalar RSUExampleScenario.node[14].veinsmobility 	totalCO2Emission 	738.04895325488
scalar RSUExampleScenario.node[15].appl 	meanClusterNodes 	2.5
scalar RSUExampleScenario.node[15].appl 	meanClusterHeadUtility 	17.634815804329
scalar RSUExampleScenario.node[15].appl 	NumberofCH 	0.054054054054054
scalar RSUExampleScenario.node[15].appl 	NumberofON 	0.64864864864865
scalar RSUExampleScenario.node[15].appl 	NumberofFN 	0.2972972972973
scalar RSUExampleScenario.node[15].veinsmobility 	startTime 	36.2
scalar RSUExampleScenario.node[15].veinsmobility 	totalTime 	413.8
scalar RSUExampleScenario.node[15].veinsmobility 	stopTime 	450
scalar RSUExampleScenario.node[15].veinsmobility 	minSpeed 	0
scalar RSUExampleScenario.node[15].veinsmobility 	maxSpeed 	13.999904442008
scalar RSUExampleScenario.node[15].veinsmobility 	totalDistance 	2614.2326471736
scalar RSUExampleScenario.node[15].veinsmobility 	totalCO2Emission 	731.57531481063
scalar RSUExampleScenario.node[16].appl 	meanClusterNodes 	3.5
scalar RSUExampleScenario.node[16].appl 	meanClusterHeadUtility 	20.47203609404
scalar RSUExampleScenario.node[16].appl 	NumberofCH 	0.054054054054054
scalar RSUExampleScenario.node[16].appl 	NumberofON 	0.59459459459459
scalar RSUExampleScenario.node[16].appl 	NumberofFN 	0.35135135135135
scalar RSUExampleScenario.node[16].veinsmobility 	startTime 	38.6
scalar RSUExampleScenario.node[16].veinsmobility 	totalTime 	411.4
scalar RSUExampleScenario.node[16].veinsmobility 	stopTime 	450
scalar RSUExampleScenario.node[16].veinsmobility 	minSpeed 	0
scalar RSUExampleScenario.node[16].veinsmobility 	maxSpeed 	13.999977409763
scalar RSUExampleScenario.node[16].veinsmobility 	totalDistance 	2582.4174018292
scalar RSUExampleScenario.node[16].veinsmobility 	totalCO2Emission 	723.35698088286
scalar RSUExampleScenario.node[17].appl 	meanClusterNodes 	3.5
scalar RSUExampleScenario.node[17].appl 	meanClusterHeadUtility 	16.034412095053
scalar RSUExampleScenario.node[17].appl 	NumberofCH 	0.054054054054054
scalar RSUExampleScenario.node[17].appl 	NumberofON 	0.48648648648649
scalar RSUExampleScenario.node[17].appl 	NumberofFN 	0.45945945945946
scalar RSUExampleScenario.node[17].veinsmobility 	startTime 	41
scalar RSUExampleScenario.node[17].veinsmobility 	totalTime 	409
scalar RSUExampleScenario.node[17].veinsmobility 	stopTime 	450
scalar RSUExampleScenario.node[17].veinsmobility 	minSpeed 	0
scalar RSUExampleScenario.node[17].veinsmobility 	maxSpeed 	13.999944723307
scalar RSUExampleScenario.node[17].veinsmobility 	totalDistance 	2541.4712839851
scalar RSUExampleScenario.node[17].veinsmobility 	totalCO2Emission 	721.34324059018
scalar RSUExampleScenario.node[18].appl 	meanClusterNodes 	3.75
scalar RSUExampleScenario.node[18].appl 	meanClusterHeadUtility 	8.954522573813
scalar RSUExampleScenario.node[18].appl 	NumberofCH 	0.10810810810811
scalar RSUExampleScenario.node[18].appl 	NumberofON 	0.45945945945946
scalar RSUExampleScenario.node[18].appl 	NumberofFN 	0.43243243243243
scalar RSUExampleScenario.node[18].veinsmobility 	startTime 	43.4
scalar RSUExampleScenario.node[18].veinsmobility 	totalTime 	406.6
scalar RSUExampleScenario.node[18].veinsmobility 	stopTime 	450
scalar RSUExampleScenario.node[18].veinsmobility 	minSpeed 	0
scalar RSUExampleScenario.node[18].veinsmobility 	maxSpeed 	13.999993984269
scalar RSUExampleScenario.node[18].veinsmobility 	totalDistance 	2510.9309168491
scalar RSUExampleScenario.node[18].veinsmobility 	totalCO2Emission 	716.41181431987
scalar RSUExampleScenario.node[19].appl 	meanClusterNodes 	9.25
scalar RSUExampleScenario.node[19].appl 	meanClusterHeadUtility 	8.3833440994587
scalar RSUExampleScenario.node[19].appl 	NumberofCH 	0.10810810810811
scalar RSUExampleScenario.node[19].appl 	NumberofON 	0.21621621621622
scalar RSUExampleScenario.node[19].appl 	NumberofFN 	0.67567567567568
scalar RSUExampleScenario.node[19].veinsmobility 	startTime 	45.8
scalar RSUExampleScenario.node[19].veinsmobility 	totalTime 	404.2
scalar RSUExampleScenario.node[19].veinsmobility 	stopTime 	450
scalar RSUExampleScenario.node[19].veinsmobility 	minSpeed 	0
scalar RSUExampleScenario.node[19].veinsmobility 	maxSpeed 	13.999963154027
scalar RSUExampleScenario.node[19].veinsmobility 	totalDistance 	2472.8626596472
scalar RSUExampleScenario.node[19].veinsmobility 	totalCO2Emission 	711.61670806643
scalar RSUExampleScenario.node[2].appl 	meanClusterNodes 	7.6666666666667
scalar RSUExampleScenario.node[2].appl 	meanClusterHeadUtility 	12.241515426931
scalar RSUExampleScenario.node[2].appl 	NumberofCH 	0.081081081081081
scalar RSUExampleScenario.node[2].appl 	NumberofON 	0.18918918918919
scalar RSUExampleScenario.node[2].appl 	NumberofFN 	0.72972972972973
scalar RSUExampleScenario.node[2].veinsmobility 	startTime 	4.9
scalar RSUExampleScenario.node[2].veinsmobility 	totalTime 	445.1
scalar RSUExampleScenario.node[2].veinsmobility 	stopTime 	450
scalar RSUExampleScenario.node[2].veinsmobility 	minSpeed 	0
scalar RSUExampleScenario.node[2].veinsmobility 	maxSpeed 	13.999687492209
scalar RSUExampleScenario.node[2].veinsmobility 	totalDistance 	3038.7549447981
scalar RSUExampleScenario.node[2].veinsmobility 	totalCO2Emission 	820.41380598759
scalar RSUExampleScenario.node[20].appl 	meanClusterNodes 	4.25
scalar RSUExampleScenario.node[20].appl 	meanClusterHeadUtility 	7.8528397815619
scalar RSUExampleScenario.node[20].appl 	NumberofCH 	0.10810810810811
scalar RSUExampleScenario.node[20].appl 	NumberofON 	0.37837837837838
scalar RSUExampleScenario.node[20].appl 	NumberofFN 	0.51351351351351
scalar RSUExampleScenario.node[20].veinsmobility 	startTime 	48.3
scalar RSUExampleScenario.node[20].veinsmobility 	totalTime 	401.7
scalar RSUExampleScenario.node[20].veinsmobility 	stopTime 	450
scalar RSUExampleScenario.node[20].veinsmobility 	minSpeed 	0
scalar RSUExampleScenario.node[20].veinsmobility 	maxSpeed 	13.999934032504
scalar RSUExampleScenario.node[20].veinsmobility 	totalDistance 	2440.9800164712
scalar RSUExampleScenario.node[20].veinsmobility 	totalCO2Emission 	701.71668408121
scalar RSUExampleScenario.node[21].appl 	meanClusterNodes 	6
scalar RSUExampleScenario.node[21].appl 	meanClusterHeadUtility 	16.957635985514
scalar RSUExampleScenario.node[21].appl 	NumberofCH 	0.054054054054054
scalar RSUExampleScenario.node[21].appl 	NumberofON 	0.35135135135135
scalar RSUExampleScenario.node[21].appl 	NumberofFN 	0.59459459459459
scalar RSUExampleScenario.node[21].veinsmobility 	startTime 	50.7
scalar RSUExampleScenario.node[21].veinsmobility 	totalTime 	399.3
scalar RSUExampleScenario.node[21].veinsmobility 	stopTime 	450
scalar RSUExampleScenario.node[21].veinsmobility 	minSpeed 	0
scalar RSUExampleScenario.node[21].veinsmobility 	maxSpeed 	13.999987548993
scalar RSUExampleScenario.node[21].veinsmobility 	totalDistance 	2402.5577790593
scalar RSUExampleScenario.node[21].veinsmobility 	totalCO2Emission 	698.49123047814
scalar RSUExampleScenario.node[22].appl 	meanClusterNodes 	0
scalar RSUExampleScenario.node[22].appl 	meanClusterHeadUtility 	0
scalar RSUExampleScenario.node[22].appl 	NumberofCH 	0
scalar RSUExampleScenario.node[22].appl 	NumberofON 	0.081081081081081
scalar RSUExampleScenario.node[22].appl 	NumberofFN 	0.91891891891892
scalar RSUExampleScenario.node[22].veinsmobility 	startTime 	53.1
scalar RSUExampleScenario.node[22].veinsmobility 	totalTime 	396.9
scalar RSUExampleScenario.node[22].veinsmobility 	stopTime 	450
scalar RSUExampleScenario.node[22].veinsmobility 	minSpeed 	0
scalar RSUExampleScenario.node[22].veinsmobility 	maxSpeed 	13.999913321363
scalar RSUExampleScenario.node[22].veinsmobility 	totalDistance 	2372.6133730747
scalar RSUExampleScenario.node[22].veinsmobility 	totalCO2Emission 	689.80565139287
scalar RSUExampleScenario.node[23].appl 	meanClusterNodes 	0
scalar RSUExampleScenario.node[23].appl 	meanClusterHeadUtility 	0
scalar RSUExampleScenario.node[23].appl 	NumberofCH 	0
scalar RSUExampleScenario.node[23].appl 	NumberofON 	0.59459459459459
scalar RSUExampleScenario.node[23].appl 	NumberofFN 	0.40540540540541
scalar RSUExampleScenario.node[23].veinsmobility 	startTime 	55.5
scalar RSUExampleScenario.node[23].veinsmobility 	totalTime 	394.5
scalar RSUExampleScenario.node[23].veinsmobility 	stopTime 	450
scalar RSUExampleScenario.node[23].veinsmobility 	minSpeed 	0
scalar RSUExampleScenario.node[23].veinsmobility 	maxSpeed 	13.999990098071
scalar RSUExampleScenario.node[23].veinsmobility 	totalDistance 	2333.3354813159
scalar RSUExampleScenario.node[23].veinsmobility 	totalCO2Emission 	683.95090929462
scalar RSUExampleScenario.node[24].appl 	meanClusterNodes 	0
scalar RSUExampleScenario.node[24].appl 	meanClusterHeadUtility 	0
scalar RSUExampleScenario.node[24].appl 	NumberofCH 	0.054054054054054
scalar RSUExampleScenario.node[24].appl 	NumberofON 	0
scalar RSUExampleScenario.node[24].appl 	NumberofFN 	0.94594594594595
scalar RSUExampleScenario.node[24].veinsmobility 	startTime 	57.9
scalar RSUExampleScenario.node[24].veinsmobility 	totalTime 	392.1
scalar RSUExampleScenario.node[24].veinsmobility 	stopTime 	450
scalar RSUExampleScenario.node[24].veinsmobility 	minSpeed 	0
scalar RSUExampleScenario.node[24].veinsmobility 	maxSpeed 	13.999857205309
scalar RSUExampleScenario.node[24].veinsmobility 	totalDistance 	2303.8562176036
scalar RSUExampleScenario.node[24].veinsmobility 	totalCO2Emission 	677.22994246912
scalar RSUExampleScenario.node[25].appl 	meanClusterNodes 	0
scalar RSUExampleScenario.node[25].appl 	meanClusterHeadUtility 	0
scalar RSUExampleScenario.node[25].appl 	NumberofCH 	0
scalar RSUExampleScenario.node[25].appl 	NumberofON 	0.72972972972973
scalar RSUExampleScenario.node[25].appl 	NumberofFN 	0.27027027027027
scalar RSUExampleScenario.node[25].veinsmobility 	startTime 	60.3
scalar RSUExampleScenario.node[25].veinsmobility 	totalTime 	389.7
scalar RSUExampleScenario.node[25].veinsmobility 	stopTime 	450
scalar RSUExampleScenario.node[25].veinsmobility 	minSpeed 	0
scalar RSUExampleScenario.node[25].veinsmobility 	maxSpeed 	13.999996560013
scalar RSUExampleScenario.node[25].veinsmobility 	totalDistance 	2268.5155470205
scalar RSUExampleScenario.node[25].veinsmobility 	totalCO2Emission 	671.5628844281
scalar RSUExampleScenario.node[26].appl 	meanClusterNodes 	0
scalar RSUExampleScenario.node[26].appl 	meanClusterHeadUtility 	0
scalar RSUExampleScenario.node[26].appl 	NumberofCH 	0.054054054054054
scalar RSUExampleScenario.node[26].appl 	NumberofON 	0
scalar RSUExampleScenario.node[26].appl 	NumberofFN 	0.94594594594595
scalar RSUExampleScenario.node[26].veinsmobility 	startTime 	62.7
scalar RSUExampleScenario.node[26].veinsmobility 	totalTime 	387.3
scalar RSUExampleScenario.node[26].veinsmobility 	stopTime 	450
scalar RSUExampleScenario.node[26].veinsmobility 	minSpeed 	0
scalar RSUExampleScenario.node[26].veinsmobility 	maxSpeed 	13.999978399889
scalar RSUExampleScenario.node[26].veinsmobility 	totalDistance 	2238.3429648057
scalar RSUExampleScenario.node[26].veinsmobility 	totalCO2Emission 	666.20364922654
scalar RSUExampleScenario.node[27].appl 	meanClusterNodes 	4.25
scalar RSUExampleScenario.node[27].appl 	meanClusterHeadUtility 	9.6063656858634
scalar RSUExampleScenario.node[27].appl 	NumberofCH 	0.10810810810811
scalar RSUExampleScenario.node[27].appl 	NumberofON 	0.62162162162162
scalar RSUExampleScenario.node[27].appl 	NumberofFN 	0.27027027027027
scalar RSUExampleScenario.node[27].veinsmobility 	startTime 	65.1
scalar RSUExampleScenario.node[27].veinsmobility 	totalTime 	384.9
scalar RSUExampleScenario.node[27].veinsmobility 	stopTime 	450
scalar RSUExampleScenario.node[27].veinsmobility 	minSpeed 	0
scalar RSUExampleScenario.node[27].veinsmobility 	maxSpeed 	13.999916866138
scalar RSUExampleScenario.node[27].veinsmobility 	totalDistance 	2201.1988263154
scalar RSUExampleScenario.node[27].veinsmobility 	totalCO2Emission 	659.1952771188
scalar RSUExampleScenario.node[28].appl 	meanClusterNodes 	9.5
scalar RSUExampleScenario.node[28].appl 	meanClusterHeadUtility 	8.7117977145386
scalar RSUExampleScenario.node[28].appl 	NumberofCH 	0.10810810810811
scalar RSUExampleScenario.node[28].appl 	NumberofON 	0.32432432432432
scalar RSUExampleScenario.node[28].appl 	NumberofFN 	0.56756756756757
scalar RSUExampleScenario.node[28].veinsmobility 	startTime 	67.5
scalar RSUExampleScenario.node[28].veinsmobility 	totalTime 	382.5
scalar RSUExampleScenario.node[28].veinsmobility 	stopTime 	450
scalar RSUExampleScenario.node[28].veinsmobility 	minSpeed 	0
scalar RSUExampleScenario.node[28].veinsmobility 	maxSpeed 	13.999790910191
scalar RSUExampleScenario.node[28].veinsmobility 	totalDistance 	2168.9182411019
scalar RSUExampleScenario.node[28].veinsmobility 	totalCO2Emission 	656.46876577656
scalar RSUExampleScenario.node[29].appl 	meanClusterNodes 	11
scalar RSUExampleScenario.node[29].appl 	meanClusterHeadUtility 	16.982857409175
scalar RSUExampleScenario.node[29].appl 	NumberofCH 	0.054054054054054
scalar RSUExampleScenario.node[29].appl 	NumberofON 	0.35135135135135
scalar RSUExampleScenario.node[29].appl 	NumberofFN 	0.59459459459459
scalar RSUExampleScenario.node[29].veinsmobility 	startTime 	69.9
scalar RSUExampleScenario.node[29].veinsmobility 	totalTime 	380.1
scalar RSUExampleScenario.node[29].veinsmobility 	stopTime 	450
scalar RSUExampleScenario.node[29].veinsmobility 	minSpeed 	0
scalar RSUExampleScenario.node[29].veinsmobility 	maxSpeed 	13.999894323784
scalar RSUExampleScenario.node[29].veinsmobility 	totalDistance 	2133.3382882368
scalar RSUExampleScenario.node[29].veinsmobility 	totalCO2Emission 	650.10726845869
scalar RSUExampleScenario.node[3].appl 	meanClusterNodes 	4
scalar RSUExampleScenario.node[3].appl 	meanClusterHeadUtility 	19.064871755152
scalar RSUExampleScenario.node[3].appl 	NumberofCH 	0.054054054054054
scalar RSUExampleScenario.node[3].appl 	NumberofON 	0.56756756756757
scalar RSUExampleScenario.node[3].appl 	NumberofFN 	0.37837837837838
scalar RSUExampleScenario.node[3].veinsmobility 	startTime 	7.3
scalar RSUExampleScenario.node[3].veinsmobility 	totalTime 	442.7
scalar RSUExampleScenario.node[3].veinsmobility 	stopTime 	450
scalar RSUExampleScenario.node[3].veinsmobility 	minSpeed 	0
scalar RSUExampleScenario.node[3].veinsmobility 	maxSpeed 	13.999890043347
scalar RSUExampleScenario.node[3].veinsmobility 	totalDistance 	2990.251714851
scalar RSUExampleScenario.node[3].veinsmobility 	totalCO2Emission 	812.22962030037
scalar RSUExampleScenario.node[30].appl 	meanClusterNodes 	0
scalar RSUExampleScenario.node[30].appl 	meanClusterHeadUtility 	0
scalar RSUExampleScenario.node[30].appl 	NumberofCH 	0
scalar RSUExampleScenario.node[30].appl 	NumberofON 	0.59459459459459
scalar RSUExampleScenario.node[30].appl 	NumberofFN 	0.40540540540541
scalar RSUExampleScenario.node[30].veinsmobility 	startTime 	72.4
scalar RSUExampleScenario.node[30].veinsmobility 	totalTime 	377.6
scalar RSUExampleScenario.node[30].veinsmobility 	stopTime 	450
scalar RSUExampleScenario.node[30].veinsmobility 	minSpeed 	0
scalar RSUExampleScenario.node[30].veinsmobility 	maxSpeed 	13.999994554336
scalar RSUExampleScenario.node[30].veinsmobility 	totalDistance 	2102.9252915409
scalar RSUExampleScenario.node[30].veinsmobility 	totalCO2Emission 	642.30676619107
scalar RSUExampleScenario.node[31].appl 	meanClusterNodes 	0
scalar RSUExampleScenario.node[31].appl 	meanClusterHeadUtility 	0
scalar RSUExampleScenario.node[31].appl 	NumberofCH 	0
scalar RSUExampleScenario.node[31].appl 	NumberofON 	0.51351351351351
scalar RSUExampleScenario.node[31].appl 	NumberofFN 	0.48648648648649
scalar RSUExampleScenario.node[31].veinsmobility 	startTime 	74.8
scalar RSUExampleScenario.node[31].veinsmobility 	totalTime 	375.2
scalar RSUExampleScenario.node[31].veinsmobility 	stopTime 	450
scalar RSUExampleScenario.node[31].veinsmobility 	minSpeed 	0
scalar RSUExampleScenario.node[31].veinsmobility 	maxSpeed 	13.999959046056
scalar RSUExampleScenario.node[31].veinsmobility 	totalDistance 	2065.0322102934
scalar RSUExampleScenario.node[31].veinsmobility 	totalCO2Emission 	640.47835879863
scalar RSUExampleScenario.node[32].appl 	meanClusterNodes 	8
scalar RSUExampleScenario.node[32].appl 	meanClusterHeadUtility 	16.413671221395
scalar RSUExampleScenario.node[32].appl 	NumberofCH 	0.054054054054054
scalar RSUExampleScenario.node[32].appl 	NumberofON 	0.56756756756757
scalar RSUExampleScenario.node[32].appl 	NumberofFN 	0.37837837837838
scalar RSUExampleScenario.node[32].veinsmobility 	startTime 	77.2
scalar RSUExampleScenario.node[32].veinsmobility 	totalTime 	372.8
scalar RSUExampleScenario.node[32].veinsmobility 	stopTime 	450
scalar RSUExampleScenario.node[32].veinsmobility 	minSpeed 	0
scalar RSUExampleScenario.node[32].veinsmobility 	maxSpeed 	13.999784655918
scalar RSUExampleScenario.node[32].veinsmobility 	totalDistance 	2032.2720758186
scalar RSUExampleScenario.node[32].veinsmobility 	totalCO2Emission 	631.84326289213
scalar RSUExampleScenario.node[33].appl 	meanClusterNodes 	3.5
scalar RSUExampleScenario.node[33].appl 	meanClusterHeadUtility 	17.028380203198
scalar RSUExampleScenario.node[33].appl 	NumberofCH 	0.054054054054054
scalar RSUExampleScenario.node[33].appl 	NumberofON 	0.59459459459459
scalar RSUExampleScenario.node[33].appl 	NumberofFN 	0.35135135135135
scalar RSUExampleScenario.node[33].veinsmobility 	startTime 	79.6
scalar RSUExampleScenario.node[33].veinsmobility 	totalTime 	370.4
scalar RSUExampleScenario.node[33].veinsmobility 	stopTime 	450
scalar RSUExampleScenario.node[33].veinsmobility 	minSpeed 	0
scalar RSUExampleScenario.node[33].veinsmobility 	maxSpeed 	13.999892054715
scalar RSUExampleScenario.node[33].veinsmobility 	totalDistance 	1997.3770027803
scalar RSUExampleScenario.node[33].veinsmobility 	totalCO2Emission 	627.36543604866
scalar RSUExampleScenario.node[34].appl 	meanClusterNodes 	6
scalar RSUExampleScenario.node[34].appl 	meanClusterHeadUtility 	16.166510010878
scalar RSUExampleScenario.node[34].appl 	NumberofCH 	0.054054054054054
scalar RSUExampleScenario.node[34].appl 	NumberofON 	0.59459459459459
scalar RSUExampleScenario.node[34].appl 	NumberofFN 	0.35135135135135
scalar RSUExampleScenario.node[34].veinsmobility 	startTime 	82
scalar RSUExampleScenario.node[34].veinsmobility 	totalTime 	368
scalar RSUExampleScenario.node[34].veinsmobility 	stopTime 	450
scalar RSUExampleScenario.node[34].veinsmobility 	minSpeed 	0
scalar RSUExampleScenario.node[34].veinsmobility 	maxSpeed 	13.999782362846
scalar RSUExampleScenario.node[34].veinsmobility 	totalDistance 	1965.4678496647
scalar RSUExampleScenario.node[34].veinsmobility 	totalCO2Emission 	622.12378724052
scalar RSUExampleScenario.node[35].appl 	meanClusterNodes 	5
scalar RSUExampleScenario.node[35].appl 	meanClusterHeadUtility 	8.723478178392
scalar RSUExampleScenario.node[35].appl 	NumberofCH 	0.10810810810811
scalar RSUExampleScenario.node[35].appl 	NumberofON 	0.40540540540541
scalar RSUExampleScenario.node[35].appl 	NumberofFN 	0.48648648648649
scalar RSUExampleScenario.node[35].veinsmobility 	startTime 	84.4
scalar RSUExampleScenario.node[35].veinsmobility 	totalTime 	365.6
scalar RSUExampleScenario.node[35].veinsmobility 	stopTime 	450
scalar RSUExampleScenario.node[35].veinsmobility 	minSpeed 	0
scalar RSUExampleScenario.node[35].veinsmobility 	maxSpeed 	13.999988702112
scalar RSUExampleScenario.node[35].veinsmobility 	totalDistance 	1932.5473706608
scalar RSUExampleScenario.node[35].veinsmobility 	totalCO2Emission 	616.79616236204
scalar RSUExampleScenario.node[36].appl 	meanClusterNodes 	8.5
scalar RSUExampleScenario.node[36].appl 	meanClusterHeadUtility 	17.534164629407
scalar RSUExampleScenario.node[36].appl 	NumberofCH 	0.054054054054054
scalar RSUExampleScenario.node[36].appl 	NumberofON 	0.54054054054054
scalar RSUExampleScenario.node[36].appl 	NumberofFN 	0.40540540540541
scalar RSUExampleScenario.node[36].veinsmobility 	startTime 	86.8
scalar RSUExampleScenario.node[36].veinsmobility 	totalTime 	363.2
scalar RSUExampleScenario.node[36].veinsmobility 	stopTime 	450
scalar RSUExampleScenario.node[36].veinsmobility 	minSpeed 	0
scalar RSUExampleScenario.node[36].veinsmobility 	maxSpeed 	13.999395656937
scalar RSUExampleScenario.node[36].veinsmobility 	totalDistance 	1897.8509228281
scalar RSUExampleScenario.node[36].veinsmobility 	totalCO2Emission 	609.23724460172
scalar RSUExampleScenario.node[37].appl 	meanClusterNodes 	6
scalar RSUExampleScenario.node[37].appl 	meanClusterHeadUtility 	17.007554497721
scalar RSUExampleScenario.node[37].appl 	NumberofCH 	0.054054054054054
scalar RSUExampleScenario.node[37].appl 	NumberofON 	0.32432432432432
scalar RSUExampleScenario.node[37].appl 	NumberofFN 	0.62162162162162
scalar RSUExampleScenario.node[37].veinsmobility 	startTime 	89.2
scalar RSUExampleScenario.node[37].veinsmobility 	totalTime 	360.8
scalar RSUExampleScenario.node[37].veinsmobility 	stopTime 	450
scalar RSUExampleScenario.node[37].veinsmobility 	minSpeed 	0
scalar RSUExampleScenario.node[37].veinsmobility 	maxSpeed 	13.999897967232
scalar RSUExampleScenario.node[37].veinsmobility 	totalDistance 	1864.3921566311
scalar RSUExampleScenario.node[37].veinsmobility 	totalCO2Emission 	600.51894406524
scalar RSUExampleScenario.node[38].appl 	meanClusterNodes 	6.5
scalar RSUExampleScenario.node[38].appl 	meanClusterHeadUtility 	18.135274106648
scalar RSUExampleScenario.node[38].appl 	NumberofCH 	0.054054054054054
scalar RSUExampleScenario.node[38].appl 	NumberofON 	0.54054054054054
scalar RSUExampleScenario.node[38].appl 	NumberofFN 	0.40540540540541
scalar RSUExampleScenario.node[38].veinsmobility 	startTime 	91.6
scalar RSUExampleScenario.node[38].veinsmobility 	totalTime 	358.4
scalar RSUExampleScenario.node[38].veinsmobility 	stopTime 	450
scalar RSUExampleScenario.node[38].veinsmobility 	minSpeed 	0
scalar RSUExampleScenario.node[38].veinsmobility 	maxSpeed 	13.999937097137
scalar RSUExampleScenario.node[38].veinsmobility 	totalDistance 	1831.4610992179
scalar RSUExampleScenario.node[38].veinsmobility 	totalCO2Emission 	599.12497542074
scalar RSUExampleScenario.node[39].appl 	meanClusterNodes 	4.5
scalar RSUExampleScenario.node[39].appl 	meanClusterHeadUtility 	16.523610673305
scalar RSUExampleScenario.node[39].appl 	NumberofCH 	0.054054054054054
scalar RSUExampleScenario.node[39].appl 	NumberofON 	0.54054054054054
scalar RSUExampleScenario.node[39].appl 	NumberofFN 	0.40540540540541
scalar RSUExampleScenario.node[39].veinsmobility 	startTime 	94
scalar RSUExampleScenario.node[39].veinsmobility 	totalTime 	356
scalar RSUExampleScenario.node[39].veinsmobility 	stopTime 	450
scalar RSUExampleScenario.node[39].veinsmobility 	minSpeed 	0
scalar RSUExampleScenario.node[39].veinsmobility 	maxSpeed 	13.999621579074
scalar RSUExampleScenario.node[39].veinsmobility 	totalDistance 	1798.6409179712
scalar RSUExampleScenario.node[39].veinsmobility 	totalCO2Emission 	590.51756998631
scalar RSUExampleScenario.node[4].appl 	meanClusterNodes 	7.25
scalar RSUExampleScenario.node[4].appl 	meanClusterHeadUtility 	8.96422697341
scalar RSUExampleScenario.node[4].appl 	NumberofCH 	0.10810810810811
scalar RSUExampleScenario.node[4].appl 	NumberofON 	0.40540540540541
scalar RSUExampleScenario.node[4].appl 	NumberofFN 	0.48648648648649
scalar RSUExampleScenario.node[4].veinsmobility 	startTime 	9.7
scalar RSUExampleScenario.node[4].veinsmobility 	totalTime 	440.3
scalar RSUExampleScenario.node[4].veinsmobility 	stopTime 	450
scalar RSUExampleScenario.node[4].veinsmobility 	minSpeed 	0
scalar RSUExampleScenario.node[4].veinsmobility 	maxSpeed 	13.999975895546
scalar RSUExampleScenario.node[4].veinsmobility 	totalDistance 	2949.3079133644
scalar RSUExampleScenario.node[4].veinsmobility 	totalCO2Emission 	797.54549014703
scalar RSUExampleScenario.node[40].appl 	meanClusterNodes 	10
scalar RSUExampleScenario.node[40].appl 	meanClusterHeadUtility 	16.487966381311
scalar RSUExampleScenario.node[40].appl 	NumberofCH 	0.054054054054054
scalar RSUExampleScenario.node[40].appl 	NumberofON 	0.24324324324324
scalar RSUExampleScenario.node[40].appl 	NumberofFN 	0.7027027027027
scalar RSUExampleScenario.node[40].veinsmobility 	startTime 	96.5
scalar RSUExampleScenario.node[40].veinsmobility 	totalTime 	353.5
scalar RSUExampleScenario.node[40].veinsmobility 	stopTime 	450
scalar RSUExampleScenario.node[40].veinsmobility 	minSpeed 	0
scalar RSUExampleScenario.node[40].veinsmobility 	maxSpeed 	13.999768505618
scalar RSUExampleScenario.node[40].veinsmobility 	totalDistance 	1763.1333848544
scalar RSUExampleScenario.node[40].veinsmobility 	totalCO2Emission 	586.13955337096
scalar RSUExampleScenario.node[41].appl 	meanClusterNodes 	5
scalar RSUExampleScenario.node[41].appl 	meanClusterHeadUtility 	18.012964451664
scalar RSUExampleScenario.node[41].appl 	NumberofCH 	0.054054054054054
scalar RSUExampleScenario.node[41].appl 	NumberofON 	0.51351351351351
scalar RSUExampleScenario.node[41].appl 	NumberofFN 	0.43243243243243
scalar RSUExampleScenario.node[41].veinsmobility 	startTime 	98.9
scalar RSUExampleScenario.node[41].veinsmobility 	totalTime 	351.1
scalar RSUExampleScenario.node[41].veinsmobility 	stopTime 	450
scalar RSUExampleScenario.node[41].veinsmobility 	minSpeed 	0
scalar RSUExampleScenario.node[41].veinsmobility 	maxSpeed 	13.999897693247
scalar RSUExampleScenario.node[41].veinsmobility 	totalDistance 	1728.8886182853
scalar RSUExampleScenario.node[41].veinsmobility 	totalCO2Emission 	579.1400138902
scalar RSUExampleScenario.node[42].appl 	meanClusterNodes 	1
scalar RSUExampleScenario.node[42].appl 	meanClusterHeadUtility 	15.814412928555
scalar RSUExampleScenario.node[42].appl 	NumberofCH 	0.054054054054054
scalar RSUExampleScenario.node[42].appl 	NumberofON 	0.64864864864865
scalar RSUExampleScenario.node[42].appl 	NumberofFN 	0.2972972972973
scalar RSUExampleScenario.node[42].veinsmobility 	startTime 	101.3
scalar RSUExampleScenario.node[42].veinsmobility 	totalTime 	348.7
scalar RSUExampleScenario.node[42].veinsmobility 	stopTime 	450
scalar RSUExampleScenario.node[42].veinsmobility 	minSpeed 	0
scalar RSUExampleScenario.node[42].veinsmobility 	maxSpeed 	13.999822438443
scalar RSUExampleScenario.node[42].veinsmobility 	totalDistance 	1694.6164787549
scalar RSUExampleScenario.node[42].veinsmobility 	totalCO2Emission 	573.8751666103
scalar RSUExampleScenario.node[43].appl 	meanClusterNodes 	6.5
scalar RSUExampleScenario.node[43].appl 	meanClusterHeadUtility 	18.040832547648
scalar RSUExampleScenario.node[43].appl 	NumberofCH 	0.054054054054054
scalar RSUExampleScenario.node[43].appl 	NumberofON 	0.62162162162162
scalar RSUExampleScenario.node[43].appl 	NumberofFN 	0.32432432432432
scalar RSUExampleScenario.node[43].veinsmobility 	startTime 	103.7
scalar RSUExampleScenario.node[43].veinsmobility 	totalTime 	346.3
scalar RSUExampleScenario.node[43].veinsmobility 	stopTime 	450
scalar RSUExampleScenario.node[43].veinsmobility 	minSpeed 	0
scalar RSUExampleScenario.node[43].veinsmobility 	maxSpeed 	13.99995024458
scalar RSUExampleScenario.node[43].veinsmobility 	totalDistance 	1662.2258216626
scalar RSUExampleScenario.node[43].veinsmobility 	totalCO2Emission 	568.16758992358
scalar RSUExampleScenario.node[44].appl 	meanClusterNodes 	4.5
scalar RSUExampleScenario.node[44].appl 	meanClusterHeadUtility 	16.633613629597
scalar RSUExampleScenario.node[44].appl 	NumberofCH 	0.054054054054054
scalar RSUExampleScenario.node[44].appl 	NumberofON 	0.54054054054054
scalar RSUExampleScenario.node[44].appl 	NumberofFN 	0.40540540540541
scalar RSUExampleScenario.node[44].veinsmobility 	startTime 	106.1
scalar RSUExampleScenario.node[44].veinsmobility 	totalTime 	343.9
scalar RSUExampleScenario.node[44].veinsmobility 	stopTime 	450
scalar RSUExampleScenario.node[44].veinsmobility 	minSpeed 	0
scalar RSUExampleScenario.node[44].veinsmobility 	maxSpeed 	13.999975248326
scalar RSUExampleScenario.node[44].veinsmobility 	totalDistance 	1628.8146457757
scalar RSUExampleScenario.node[44].veinsmobility 	totalCO2Emission 	563.79677312291
scalar RSUExampleScenario.node[45].appl 	meanClusterNodes 	2
scalar RSUExampleScenario.node[45].appl 	meanClusterHeadUtility 	18.204817429128
scalar RSUExampleScenario.node[45].appl 	NumberofCH 	0.054054054054054
scalar RSUExampleScenario.node[45].appl 	NumberofON 	0.64864864864865
scalar RSUExampleScenario.node[45].appl 	NumberofFN 	0.2972972972973
scalar RSUExampleScenario.node[45].veinsmobility 	startTime 	108.5
scalar RSUExampleScenario.node[45].veinsmobility 	totalTime 	341.5
scalar RSUExampleScenario.node[45].veinsmobility 	stopTime 	450
scalar RSUExampleScenario.node[45].veinsmobility 	minSpeed 	0
scalar RSUExampleScenario.node[45].veinsmobility 	maxSpeed 	13.999885248384
scalar RSUExampleScenario.node[45].veinsmobility 	totalDistance 	1595.1957678451
scalar RSUExampleScenario.node[45].veinsmobility 	totalCO2Emission 	558.14597771918
scalar RSUExampleScenario.node[46].appl 	meanClusterNodes 	3.5
scalar RSUExampleScenario.node[46].appl 	meanClusterHeadUtility 	9.1873543738397
scalar RSUExampleScenario.node[46].appl 	NumberofCH 	0.10810810810811
scalar RSUExampleScenario.node[46].appl 	NumberofON 	0.54054054054054
scalar RSUExampleScenario.node[46].appl 	NumberofFN 	0.35135135135135
scalar RSUExampleScenario.node[46].veinsmobility 	startTime 	110.9
scalar RSUExampleScenario.node[46].veinsmobility 	totalTime 	339.1
scalar RSUExampleScenario.node[46].veinsmobility 	stopTime 	450
scalar RSUExampleScenario.node[46].veinsmobility 	minSpeed 	0
scalar RSUExampleScenario.node[46].veinsmobility 	maxSpeed 	13.999977721856
scalar RSUExampleScenario.node[46].veinsmobility 	totalDistance 	1560.974786959
scalar RSUExampleScenario.node[46].veinsmobility 	totalCO2Emission 	553.11616803327
scalar RSUExampleScenario.node[47].appl 	meanClusterNodes 	12.333333333333
scalar RSUExampleScenario.node[47].appl 	meanClusterHeadUtility 	11.515607499833
scalar RSUExampleScenario.node[47].appl 	NumberofCH 	0.081081081081081
scalar RSUExampleScenario.node[47].appl 	NumberofON 	0.43243243243243
scalar RSUExampleScenario.node[47].appl 	NumberofFN 	0.48648648648649
scalar RSUExampleScenario.node[47].veinsmobility 	startTime 	113.3
scalar RSUExampleScenario.node[47].veinsmobility 	totalTime 	336.7
scalar RSUExampleScenario.node[47].veinsmobility 	stopTime 	450
scalar RSUExampleScenario.node[47].veinsmobility 	minSpeed 	0
scalar RSUExampleScenario.node[47].veinsmobility 	maxSpeed 	13.999516730022
scalar RSUExampleScenario.node[47].veinsmobility 	totalDistance 	1529.15393101
scalar RSUExampleScenario.node[47].veinsmobility 	totalCO2Emission 	549.471190238
scalar RSUExampleScenario.node[48].appl 	meanClusterNodes 	0
scalar RSUExampleScenario.node[48].appl 	meanClusterHeadUtility 	0
scalar RSUExampleScenario.node[48].appl 	NumberofCH 	0
scalar RSUExampleScenario.node[48].appl 	NumberofON 	0.56756756756757
scalar RSUExampleScenario.node[48].appl 	NumberofFN 	0.43243243243243
scalar RSUExampleScenario.node[48].veinsmobility 	startTime 	115.7
scalar RSUExampleScenario.node[48].veinsmobility 	totalTime 	334.3
scalar RSUExampleScenario.node[48].veinsmobility 	stopTime 	450
scalar RSUExampleScenario.node[48].veinsmobility 	minSpeed 	0
scalar RSUExampleScenario.node[48].veinsmobility 	maxSpeed 	13.99981607578
scalar RSUExampleScenario.node[48].veinsmobility 	totalDistance 	1495.3448364568
scalar RSUExampleScenario.node[48].veinsmobility 	totalCO2Emission 	542.76387788912
scalar RSUExampleScenario.node[49].appl 	meanClusterNodes 	4
scalar RSUExampleScenario.node[49].appl 	meanClusterHeadUtility 	17.824577715463
scalar RSUExampleScenario.node[49].appl 	NumberofCH 	0.054054054054054
scalar RSUExampleScenario.node[49].appl 	NumberofON 	0.35135135135135
scalar RSUExampleScenario.node[49].appl 	NumberofFN 	0.59459459459459
scalar RSUExampleScenario.node[49].veinsmobility 	startTime 	118.1
scalar RSUExampleScenario.node[49].veinsmobility 	totalTime 	331.9
scalar RSUExampleScenario.node[49].veinsmobility 	stopTime 	450
scalar RSUExampleScenario.node[49].veinsmobility 	minSpeed 	0
scalar RSUExampleScenario.node[49].veinsmobility 	maxSpeed 	13.99990014008
scalar RSUExampleScenario.node[49].veinsmobility 	totalDistance 	1461.6451186426
scalar RSUExampleScenario.node[49].veinsmobility 	totalCO2Emission 	534.07350675468
scalar RSUExampleScenario.node[5].appl 	meanClusterNodes 	0
scalar RSUExampleScenario.node[5].appl 	meanClusterHeadUtility 	0
scalar RSUExampleScenario.node[5].appl 	NumberofCH 	0.027027027027027
scalar RSUExampleScenario.node[5].appl 	NumberofON 	0.45945945945946
scalar RSUExampleScenario.node[5].appl 	NumberofFN 	0.51351351351351
scalar RSUExampleScenario.node[5].veinsmobility 	startTime 	12.1
scalar RSUExampleScenario.node[5].veinsmobility 	totalTime 	437.9
scalar RSUExampleScenario.node[5].veinsmobility 	stopTime 	450
scalar RSUExampleScenario.node[5].veinsmobility 	minSpeed 	0
scalar RSUExampleScenario.node[5].veinsmobility 	maxSpeed 	13.999925359606
scalar RSUExampleScenario.node[5].veinsmobility 	totalDistance 	2913.1372393045
scalar RSUExampleScenario.node[5].veinsmobility 	totalCO2Emission 	783.99692618946
scalar RSUExampleScenario.node[50].appl 	meanClusterNodes 	0
scalar RSUExampleScenario.node[50].appl 	meanClusterHeadUtility 	0
scalar RSUExampleScenario.node[50].appl 	NumberofCH 	0
scalar RSUExampleScenario.node[50].appl 	NumberofON 	0.32432432432432
scalar RSUExampleScenario.node[50].appl 	NumberofFN 	0.67567567567568
scalar RSUExampleScenario.node[50].veinsmobility 	startTime 	120.6
scalar RSUExampleScenario.node[50].veinsmobility 	totalTime 	329.4
scalar RSUExampleScenario.node[50].veinsmobility 	stopTime 	450
scalar RSUExampleScenario.node[50].veinsmobility 	minSpeed 	0
scalar RSUExampleScenario.node[50].veinsmobility 	maxSpeed 	13.999593749268
scalar RSUExampleScenario.node[50].veinsmobility 	totalDistance 	1427.5275251187
scalar RSUExampleScenario.node[50].veinsmobility 	totalCO2Emission 	531.86769959084
scalar RSUExampleScenario.node[51].appl 	meanClusterNodes 	3.5
scalar RSUExampleScenario.node[51].appl 	meanClusterHeadUtility 	16.163961859104
scalar RSUExampleScenario.node[51].appl 	NumberofCH 	0.054054054054054
scalar RSUExampleScenario.node[51].appl 	NumberofON 	0.37837837837838
scalar RSUExampleScenario.node[51].appl 	NumberofFN 	0.56756756756757
scalar RSUExampleScenario.node[51].veinsmobility 	startTime 	123
scalar RSUExampleScenario.node[51].veinsmobility 	totalTime 	327
scalar RSUExampleScenario.node[51].veinsmobility 	stopTime 	450
scalar RSUExampleScenario.node[51].veinsmobility 	minSpeed 	0
scalar RSUExampleScenario.node[51].veinsmobility 	maxSpeed 	13.999971709696
scalar RSUExampleScenario.node[51].veinsmobility 	totalDistance 	1394.6277229164
scalar RSUExampleScenario.node[51].veinsmobility 	totalCO2Emission 	523.87017688625
scalar RSUExampleScenario.node[52].appl 	meanClusterNodes 	10.25
scalar RSUExampleScenario.node[52].appl 	meanClusterHeadUtility 	8.6403530095055
scalar RSUExampleScenario.node[52].appl 	NumberofCH 	0.10810810810811
scalar RSUExampleScenario.node[52].appl 	NumberofON 	0.24324324324324
scalar RSUExampleScenario.node[52].appl 	NumberofFN 	0.64864864864865
scalar RSUExampleScenario.node[52].veinsmobility 	startTime 	125.4
scalar RSUExampleScenario.node[52].veinsmobility 	totalTime 	324.6
scalar RSUExampleScenario.node[52].veinsmobility 	stopTime 	450
scalar RSUExampleScenario.node[52].veinsmobility 	minSpeed 	0
scalar RSUExampleScenario.node[52].veinsmobility 	maxSpeed 	13.999973044212
scalar RSUExampleScenario.node[52].veinsmobility 	totalDistance 	1361.5494359066
scalar RSUExampleScenario.node[52].veinsmobility 	totalCO2Emission 	517.33388341798
scalar RSUExampleScenario.node[53].appl 	meanClusterNodes 	3.5
scalar RSUExampleScenario.node[53].appl 	meanClusterHeadUtility 	16.29787171129
scalar RSUExampleScenario.node[53].appl 	NumberofCH 	0.054054054054054
scalar RSUExampleScenario.node[53].appl 	NumberofON 	0.56756756756757
scalar RSUExampleScenario.node[53].appl 	NumberofFN 	0.37837837837838
scalar RSUExampleScenario.node[53].veinsmobility 	startTime 	127.8
scalar RSUExampleScenario.node[53].veinsmobility 	totalTime 	322.2
scalar RSUExampleScenario.node[53].veinsmobility 	stopTime 	450
scalar RSUExampleScenario.node[53].veinsmobility 	minSpeed 	0
scalar RSUExampleScenario.node[53].veinsmobility 	maxSpeed 	13.999972175006
scalar RSUExampleScenario.node[53].veinsmobility 	totalDistance 	1326.5159999312
scalar RSUExampleScenario.node[53].veinsmobility 	totalCO2Emission 	514.27473400374
scalar RSUExampleScenario.node[54].appl 	meanClusterNodes 	6.75
scalar RSUExampleScenario.node[54].appl 	meanClusterHeadUtility 	8.8307745587191
scalar RSUExampleScenario.node[54].appl 	NumberofCH 	0.10810810810811
scalar RSUExampleScenario.node[54].appl 	NumberofON 	0.37837837837838
scalar RSUExampleScenario.node[54].appl 	NumberofFN 	0.51351351351351
scalar RSUExampleScenario.node[54].veinsmobility 	startTime 	130.2
scalar RSUExampleScenario.node[54].veinsmobility 	totalTime 	319.8
scalar RSUExampleScenario.node[54].veinsmobility 	stopTime 	450
scalar RSUExampleScenario.node[54].veinsmobility 	minSpeed 	0
scalar RSUExampleScenario.node[54].veinsmobility 	maxSpeed 	13.999941160614
scalar RSUExampleScenario.node[54].veinsmobility 	totalDistance 	1294.8081326368
scalar RSUExampleScenario.node[54].veinsmobility 	totalCO2Emission 	506.33793957545
scalar RSUExampleScenario.node[55].appl 	meanClusterNodes 	6.5
scalar RSUExampleScenario.node[55].appl 	meanClusterHeadUtility 	16.845284069549
scalar RSUExampleScenario.node[55].appl 	NumberofCH 	0.054054054054054
scalar RSUExampleScenario.node[55].appl 	NumberofON 	0.43243243243243
scalar RSUExampleScenario.node[55].appl 	NumberofFN 	0.51351351351351
scalar RSUExampleScenario.node[55].veinsmobility 	startTime 	132.6
scalar RSUExampleScenario.node[55].veinsmobility 	totalTime 	317.4
scalar RSUExampleScenario.node[55].veinsmobility 	stopTime 	450
scalar RSUExampleScenario.node[55].veinsmobility 	minSpeed 	0
scalar RSUExampleScenario.node[55].veinsmobility 	maxSpeed 	13.999928159607
scalar RSUExampleScenario.node[55].veinsmobility 	totalDistance 	1258.8752865987
scalar RSUExampleScenario.node[55].veinsmobility 	totalCO2Emission 	502.6243363757
scalar RSUExampleScenario.node[56].appl 	meanClusterNodes 	5
scalar RSUExampleScenario.node[56].appl 	meanClusterHeadUtility 	17.596061219962
scalar RSUExampleScenario.node[56].appl 	NumberofCH 	0.054054054054054
scalar RSUExampleScenario.node[56].appl 	NumberofON 	0.7027027027027
scalar RSUExampleScenario.node[56].appl 	NumberofFN 	0.24324324324324
scalar RSUExampleScenario.node[56].veinsmobility 	startTime 	135
scalar RSUExampleScenario.node[56].veinsmobility 	totalTime 	315
scalar RSUExampleScenario.node[56].veinsmobility 	stopTime 	450
scalar RSUExampleScenario.node[56].veinsmobility 	minSpeed 	0
scalar RSUExampleScenario.node[56].veinsmobility 	maxSpeed 	13.999980068593
scalar RSUExampleScenario.node[56].veinsmobility 	totalDistance 	1225.0649064824
scalar RSUExampleScenario.node[56].veinsmobility 	totalCO2Emission 	498.49599021807
scalar RSUExampleScenario.node[57].appl 	meanClusterNodes 	0
scalar RSUExampleScenario.node[57].appl 	meanClusterHeadUtility 	0
scalar RSUExampleScenario.node[57].appl 	NumberofCH 	0
scalar RSUExampleScenario.node[57].appl 	NumberofON 	0.32432432432432
scalar RSUExampleScenario.node[57].appl 	NumberofFN 	0.67567567567568
scalar RSUExampleScenario.node[57].veinsmobility 	startTime 	137.4
scalar RSUExampleScenario.node[57].veinsmobility 	totalTime 	312.6
scalar RSUExampleScenario.node[57].veinsmobility 	stopTime 	450
scalar RSUExampleScenario.node[57].veinsmobility 	minSpeed 	0
scalar RSUExampleScenario.node[57].veinsmobility 	maxSpeed 	13.999962774587
scalar RSUExampleScenario.node[57].veinsmobility 	totalDistance 	1192.2889168479
scalar RSUExampleScenario.node[57].veinsmobility 	totalCO2Emission 	490.74259575627
scalar RSUExampleScenario.node[58].appl 	meanClusterNodes 	0
scalar RSUExampleScenario.node[58].appl 	meanClusterHeadUtility 	0
scalar RSUExampleScenario.node[58].appl 	NumberofCH 	0
scalar RSUExampleScenario.node[58].appl 	NumberofON 	0.59459459459459
scalar RSUExampleScenario.node[58].appl 	NumberofFN 	0.40540540540541
scalar RSUExampleScenario.node[58].veinsmobility 	startTime 	139.8
scalar RSUExampleScenario.node[58].veinsmobility 	totalTime 	310.2
scalar RSUExampleScenario.node[58].veinsmobility 	stopTime 	450
scalar RSUExampleScenario.node[58].veinsmobility 	minSpeed 	0
scalar RSUExampleScenario.node[58].veinsmobility 	maxSpeed 	13.999942643533
scalar RSUExampleScenario.node[58].veinsmobility 	totalDistance 	1159.7016345244
scalar RSUExampleScenario.node[58].veinsmobility 	totalCO2Emission 	484.7845641606
scalar RSUExampleScenario.node[59].appl 	meanClusterNodes 	0
scalar RSUExampleScenario.node[59].appl 	meanClusterHeadUtility 	0
scalar RSUExampleScenario.node[59].appl 	NumberofCH 	0
scalar RSUExampleScenario.node[59].appl 	NumberofON 	0.43243243243243
scalar RSUExampleScenario.node[59].appl 	NumberofFN 	0.56756756756757
scalar RSUExampleScenario.node[59].veinsmobility 	startTime 	142.2
scalar RSUExampleScenario.node[59].veinsmobility 	totalTime 	307.8
scalar RSUExampleScenario.node[59].veinsmobility 	stopTime 	450
scalar RSUExampleScenario.node[59].veinsmobility 	minSpeed 	0
scalar RSUExampleScenario.node[59].veinsmobility 	maxSpeed 	13.999795856706
scalar RSUExampleScenario.node[59].veinsmobility 	totalDistance 	1124.8963523564
scalar RSUExampleScenario.node[59].veinsmobility 	totalCO2Emission 	481.89307818418
scalar RSUExampleScenario.node[6].appl 	meanClusterNodes 	3.5
scalar RSUExampleScenario.node[6].appl 	meanClusterHeadUtility 	16.946013373976
scalar RSUExampleScenario.node[6].appl 	NumberofCH 	0.054054054054054
scalar RSUExampleScenario.node[6].appl 	NumberofON 	0.51351351351351
scalar RSUExampleScenario.node[6].appl 	NumberofFN 	0.43243243243243
scalar RSUExampleScenario.node[6].veinsmobility 	startTime 	14.5
scalar RSUExampleScenario.node[6].veinsmobility 	totalTime 	435.5
scalar RSUExampleScenario.node[6].veinsmobility 	stopTime 	450
scalar RSUExampleScenario.node[6].veinsmobility 	minSpeed 	0
scalar RSUExampleScenario.node[6].veinsmobility 	maxSpeed 	13.999954513819
scalar RSUExampleScenario.node[6].veinsmobility 	totalDistance 	2905.0458420944
scalar RSUExampleScenario.node[6].veinsmobility 	totalCO2Emission 	776.60323480834
scalar RSUExampleScenario.node[60].appl 	meanClusterNodes 	5.25
scalar RSUExampleScenario.node[60].appl 	meanClusterHeadUtility 	8.4676914365777
scalar RSUExampleScenario.node[60].appl 	NumberofCH 	0.10810810810811
scalar RSUExampleScenario.node[60].appl 	NumberofON 	0.45945945945946
scalar RSUExampleScenario.node[60].appl 	NumberofFN 	0.43243243243243
scalar RSUExampleScenario.node[60].veinsmobility 	startTime 	144.7
scalar RSUExampleScenario.node[60].veinsmobility 	totalTime 	305.3
scalar RSUExampleScenario.node[60].veinsmobility 	stopTime 	450
scalar RSUExampleScenario.node[60].veinsmobility 	minSpeed 	0
scalar RSUExampleScenario.node[60].veinsmobility 	maxSpeed 	13.999734933642
scalar RSUExampleScenario.node[60].veinsmobility 	totalDistance 	1091.068343634
scalar RSUExampleScenario.node[60].veinsmobility 	totalCO2Emission 	472.88257772212
scalar RSUExampleScenario.node[61].appl 	meanClusterNodes 	8.5
scalar RSUExampleScenario.node[61].appl 	meanClusterHeadUtility 	17.578708865668
scalar RSUExampleScenario.node[61].appl 	NumberofCH 	0.054054054054054
scalar RSUExampleScenario.node[61].appl 	NumberofON 	0.24324324324324
scalar RSUExampleScenario.node[61].appl 	NumberofFN 	0.7027027027027
scalar RSUExampleScenario.node[61].veinsmobility 	startTime 	147.1
scalar RSUExampleScenario.node[61].veinsmobility 	totalTime 	302.9
scalar RSUExampleScenario.node[61].veinsmobility 	stopTime 	450
scalar RSUExampleScenario.node[61].veinsmobility 	minSpeed 	0
scalar RSUExampleScenario.node[61].veinsmobility 	maxSpeed 	13.999732855291
scalar RSUExampleScenario.node[61].veinsmobility 	totalDistance 	1058.9552169203
scalar RSUExampleScenario.node[61].veinsmobility 	totalCO2Emission 	470.39981719828
scalar RSUExampleScenario.node[62].appl 	meanClusterNodes 	0
scalar RSUExampleScenario.node[62].appl 	meanClusterHeadUtility 	0
scalar RSUExampleScenario.node[62].appl 	NumberofCH 	0
scalar RSUExampleScenario.node[62].appl 	NumberofON 	0.56756756756757
scalar RSUExampleScenario.node[62].appl 	NumberofFN 	0.43243243243243
scalar RSUExampleScenario.node[62].veinsmobility 	startTime 	149.5
scalar RSUExampleScenario.node[62].veinsmobility 	totalTime 	300.5
scalar RSUExampleScenario.node[62].veinsmobility 	stopTime 	450
scalar RSUExampleScenario.node[62].veinsmobility 	minSpeed 	0
scalar RSUExampleScenario.node[62].veinsmobility 	maxSpeed 	13.999604491345
scalar RSUExampleScenario.node[62].veinsmobility 	totalDistance 	1025.1442802672
scalar RSUExampleScenario.node[62].veinsmobility 	totalCO2Emission 	461.56275581124
scalar RSUExampleScenario.node[63].appl 	meanClusterNodes 	11.5
scalar RSUExampleScenario.node[63].appl 	meanClusterHeadUtility 	17.987212146115
scalar RSUExampleScenario.node[63].appl 	NumberofCH 	0.054054054054054
scalar RSUExampleScenario.node[63].appl 	NumberofON 	0.37837837837838
scalar RSUExampleScenario.node[63].appl 	NumberofFN 	0.56756756756757
scalar RSUExampleScenario.node[63].veinsmobility 	startTime 	151.9
scalar RSUExampleScenario.node[63].veinsmobility 	totalTime 	298.1
scalar RSUExampleScenario.node[63].veinsmobility 	stopTime 	450
scalar RSUExampleScenario.node[63].veinsmobility 	minSpeed 	0
scalar RSUExampleScenario.node[63].veinsmobility 	maxSpeed 	13.999622027071
scalar RSUExampleScenario.node[63].veinsmobility 	totalDistance 	986.8617148592
scalar RSUExampleScenario.node[63].veinsmobility 	totalCO2Emission 	450.38116216265
scalar RSUExampleScenario.node[64].appl 	meanClusterNodes 	6
scalar RSUExampleScenario.node[64].appl 	meanClusterHeadUtility 	16.488635491362
scalar RSUExampleScenario.node[64].appl 	NumberofCH 	0.054054054054054
scalar RSUExampleScenario.node[64].appl 	NumberofON 	0.62162162162162
scalar RSUExampleScenario.node[64].appl 	NumberofFN 	0.32432432432432
scalar RSUExampleScenario.node[64].veinsmobility 	startTime 	154.3
scalar RSUExampleScenario.node[64].veinsmobility 	totalTime 	295.7
scalar RSUExampleScenario.node[64].veinsmobility 	stopTime 	450
scalar RSUExampleScenario.node[64].veinsmobility 	minSpeed 	0
scalar RSUExampleScenario.node[64].veinsmobility 	maxSpeed 	13.999940369197
scalar RSUExampleScenario.node[64].veinsmobility 	totalDistance 	955.04072072168
scalar RSUExampleScenario.node[64].veinsmobility 	totalCO2Emission 	437.36168023014
scalar RSUExampleScenario.node[65].appl 	meanClusterNodes 	8.5
scalar RSUExampleScenario.node[65].appl 	meanClusterHeadUtility 	19.267047547967
scalar RSUExampleScenario.node[65].appl 	NumberofCH 	0.054054054054054
scalar RSUExampleScenario.node[65].appl 	NumberofON 	0.27027027027027
scalar RSUExampleScenario.node[65].appl 	NumberofFN 	0.67567567567568
scalar RSUExampleScenario.node[65].veinsmobility 	startTime 	156.7
scalar RSUExampleScenario.node[65].veinsmobility 	totalTime 	293.3
scalar RSUExampleScenario.node[65].veinsmobility 	stopTime 	450
scalar RSUExampleScenario.node[65].veinsmobility 	minSpeed 	0
scalar RSUExampleScenario.node[65].veinsmobility 	maxSpeed 	13.999797685558
scalar RSUExampleScenario.node[65].veinsmobility 	totalDistance 	940.68167379884
scalar RSUExampleScenario.node[65].veinsmobility 	totalCO2Emission 	428.58113585297
scalar RSUExampleScenario.node[66].appl 	meanClusterNodes 	0
scalar RSUExampleScenario.node[66].appl 	meanClusterHeadUtility 	0
scalar RSUExampleScenario.node[66].appl 	NumberofCH 	0
scalar RSUExampleScenario.node[66].appl 	NumberofON 	0.43243243243243
scalar RSUExampleScenario.node[66].appl 	NumberofFN 	0.56756756756757
scalar RSUExampleScenario.node[66].veinsmobility 	startTime 	159.1
scalar RSUExampleScenario.node[66].veinsmobility 	totalTime 	290.9
scalar RSUExampleScenario.node[66].veinsmobility 	stopTime 	450
scalar RSUExampleScenario.node[66].veinsmobility 	minSpeed 	0
scalar RSUExampleScenario.node[66].veinsmobility 	maxSpeed 	13.99975754319
scalar RSUExampleScenario.node[66].veinsmobility 	totalDistance 	928.56280797956
scalar RSUExampleScenario.node[66].veinsmobility 	totalCO2Emission 	425.94661191566
scalar RSUExampleScenario.node[67].appl 	meanClusterNodes 	14
scalar RSUExampleScenario.node[67].appl 	meanClusterHeadUtility 	18.439444979164
scalar RSUExampleScenario.node[67].appl 	NumberofCH 	0.054054054054054
scalar RSUExampleScenario.node[67].appl 	NumberofON 	0.13513513513514
scalar RSUExampleScenario.node[67].appl 	NumberofFN 	0.81081081081081
scalar RSUExampleScenario.node[67].veinsmobility 	startTime 	161.5
scalar RSUExampleScenario.node[67].veinsmobility 	totalTime 	288.5
scalar RSUExampleScenario.node[67].veinsmobility 	stopTime 	450
scalar RSUExampleScenario.node[67].veinsmobility 	minSpeed 	0
scalar RSUExampleScenario.node[67].veinsmobility 	maxSpeed 	13.999734209965
scalar RSUExampleScenario.node[67].veinsmobility 	totalDistance 	913.15267548062
scalar RSUExampleScenario.node[67].veinsmobility 	totalCO2Emission 	422.32430540783
scalar RSUExampleScenario.node[68].appl 	meanClusterNodes 	10.5
scalar RSUExampleScenario.node[68].appl 	meanClusterHeadUtility 	17.743708525929
scalar RSUExampleScenario.node[68].appl 	NumberofCH 	0.054054054054054
scalar RSUExampleScenario.node[68].appl 	NumberofON 	0.21621621621622
scalar RSUExampleScenario.node[68].appl 	NumberofFN 	0.72972972972973
scalar RSUExampleScenario.node[68].veinsmobility 	startTime 	163.9
scalar RSUExampleScenario.node[68].veinsmobility 	totalTime 	286.1
scalar RSUExampleScenario.node[68].veinsmobility 	stopTime 	450
scalar RSUExampleScenario.node[68].veinsmobility 	minSpeed 	0
scalar RSUExampleScenario.node[68].veinsmobility 	maxSpeed 	13.999847869603
scalar RSUExampleScenario.node[68].veinsmobility 	totalDistance 	893.28497982157
scalar RSUExampleScenario.node[68].veinsmobility 	totalCO2Emission 	418.81466726827
scalar RSUExampleScenario.node[69].appl 	meanClusterNodes 	0
scalar RSUExampleScenario.node[69].appl 	meanClusterHeadUtility 	0
scalar RSUExampleScenario.node[69].appl 	NumberofCH 	0
scalar RSUExampleScenario.node[69].appl 	NumberofON 	0.45945945945946
scalar RSUExampleScenario.node[69].appl 	NumberofFN 	0.54054054054054
scalar RSUExampleScenario.node[69].veinsmobility 	startTime 	166.3
scalar RSUExampleScenario.node[69].veinsmobility 	totalTime 	283.7
scalar RSUExampleScenario.node[69].veinsmobility 	stopTime 	450
scalar RSUExampleScenario.node[69].veinsmobility 	minSpeed 	0
scalar RSUExampleScenario.node[69].veinsmobility 	maxSpeed 	13.999214892332
scalar RSUExampleScenario.node[69].veinsmobility 	totalDistance 	860.67807477315
scalar RSUExampleScenario.node[69].veinsmobility 	totalCO2Emission 	411.75185907164
scalar RSUExampleScenario.node[7].appl 	meanClusterNodes 	7.5
scalar RSUExampleScenario.node[7].appl 	meanClusterHeadUtility 	18.37302212662
scalar RSUExampleScenario.node[7].appl 	NumberofCH 	0.054054054054054
scalar RSUExampleScenario.node[7].appl 	NumberofON 	0.2972972972973
scalar RSUExampleScenario.node[7].appl 	NumberofFN 	0.64864864864865
scalar RSUExampleScenario.node[7].veinsmobility 	startTime 	16.9
scalar RSUExampleScenario.node[7].veinsmobility 	totalTime 	433.1
scalar RSUExampleScenario.node[7].veinsmobility 	stopTime 	450
scalar RSUExampleScenario.node[7].veinsmobility 	minSpeed 	0
scalar RSUExampleScenario.node[7].veinsmobility 	maxSpeed 	13.999898870157
scalar RSUExampleScenario.node[7].veinsmobility 	totalDistance 	2884.8549467754
scalar RSUExampleScenario.node[7].veinsmobility 	totalCO2Emission 	777.18491465105
scalar RSUExampleScenario.node[70].appl 	meanClusterNodes 	3
scalar RSUExampleScenario.node[70].appl 	meanClusterHeadUtility 	34.693760914358
scalar RSUExampleScenario.node[70].appl 	NumberofCH 	0.027027027027027
scalar RSUExampleScenario.node[70].appl 	NumberofON 	0.67567567567568
scalar RSUExampleScenario.node[70].appl 	NumberofFN 	0.2972972972973
scalar RSUExampleScenario.node[70].veinsmobility 	startTime 	168.8
scalar RSUExampleScenario.node[70].veinsmobility 	totalTime 	281.2
scalar RSUExampleScenario.node[70].veinsmobility 	stopTime 	450
scalar RSUExampleScenario.node[70].veinsmobility 	minSpeed 	0
scalar RSUExampleScenario.node[70].veinsmobility 	maxSpeed 	13.998810343689
scalar RSUExampleScenario.node[70].veinsmobility 	totalDistance 	827.14056929537
scalar RSUExampleScenario.node[70].veinsmobility 	totalCO2Emission 	406.77841118544
scalar RSUExampleScenario.node[71].appl 	meanClusterNodes 	0
scalar RSUExampleScenario.node[71].appl 	meanClusterHeadUtility 	0
scalar RSUExampleScenario.node[71].appl 	NumberofCH 	0
scalar RSUExampleScenario.node[71].appl 	NumberofON 	0.45945945945946
scalar RSUExampleScenario.node[71].appl 	NumberofFN 	0.54054054054054
scalar RSUExampleScenario.node[71].veinsmobility 	startTime 	171.2
scalar RSUExampleScenario.node[71].veinsmobility 	totalTime 	278.8
scalar RSUExampleScenario.node[71].veinsmobility 	stopTime 	450
scalar RSUExampleScenario.node[71].veinsmobility 	minSpeed 	0
scalar RSUExampleScenario.node[71].veinsmobility 	maxSpeed 	13.999600958889
scalar RSUExampleScenario.node[71].veinsmobility 	totalDistance 	793.8127529215
scalar RSUExampleScenario.node[71].veinsmobility 	totalCO2Emission 	401.70174749527
scalar RSUExampleScenario.node[72].appl 	meanClusterNodes 	9
scalar RSUExampleScenario.node[72].appl 	meanClusterHeadUtility 	16.666986941189
scalar RSUExampleScenario.node[72].appl 	NumberofCH 	0.054054054054054
scalar RSUExampleScenario.node[72].appl 	NumberofON 	0.35135135135135
scalar RSUExampleScenario.node[72].appl 	NumberofFN 	0.59459459459459
scalar RSUExampleScenario.node[72].veinsmobility 	startTime 	173.6
scalar RSUExampleScenario.node[72].veinsmobility 	totalTime 	276.4
scalar RSUExampleScenario.node[72].veinsmobility 	stopTime 	450
scalar RSUExampleScenario.node[72].veinsmobility 	minSpeed 	0
scalar RSUExampleScenario.node[72].veinsmobility 	maxSpeed 	13.999748033171
scalar RSUExampleScenario.node[72].veinsmobility 	totalDistance 	759.97476795244
scalar RSUExampleScenario.node[72].veinsmobility 	totalCO2Emission 	395.77050406527
scalar RSUExampleScenario.node[73].appl 	meanClusterNodes 	4.5
scalar RSUExampleScenario.node[73].appl 	meanClusterHeadUtility 	17.356719060814
scalar RSUExampleScenario.node[73].appl 	NumberofCH 	0.054054054054054
scalar RSUExampleScenario.node[73].appl 	NumberofON 	0.54054054054054
scalar RSUExampleScenario.node[73].appl 	NumberofFN 	0.40540540540541
scalar RSUExampleScenario.node[73].veinsmobility 	startTime 	176
scalar RSUExampleScenario.node[73].veinsmobility 	totalTime 	274
scalar RSUExampleScenario.node[73].veinsmobility 	stopTime 	450
scalar RSUExampleScenario.node[73].veinsmobility 	minSpeed 	0
scalar RSUExampleScenario.node[73].veinsmobility 	maxSpeed 	13.999301588705
scalar RSUExampleScenario.node[73].veinsmobility 	totalDistance 	725.8116802179
scalar RSUExampleScenario.node[73].veinsmobility 	totalCO2Emission 	389.45313370918
scalar RSUExampleScenario.node[74].appl 	meanClusterNodes 	4
scalar RSUExampleScenario.node[74].appl 	meanClusterHeadUtility 	8.0450631970163
scalar RSUExampleScenario.node[74].appl 	NumberofCH 	0.10810810810811
scalar RSUExampleScenario.node[74].appl 	NumberofON 	0.64864864864865
scalar RSUExampleScenario.node[74].appl 	NumberofFN 	0.24324324324324
scalar RSUExampleScenario.node[74].veinsmobility 	startTime 	178.4
scalar RSUExampleScenario.node[74].veinsmobility 	totalTime 	271.6
scalar RSUExampleScenario.node[74].veinsmobility 	stopTime 	450
scalar RSUExampleScenario.node[74].veinsmobility 	minSpeed 	0
scalar RSUExampleScenario.node[74].veinsmobility 	maxSpeed 	13.999545190341
scalar RSUExampleScenario.node[74].veinsmobility 	totalDistance 	693.20365197986
scalar RSUExampleScenario.node[74].veinsmobility 	totalCO2Emission 	385.19461926611
scalar RSUExampleScenario.node[75].appl 	meanClusterNodes 	4
scalar RSUExampleScenario.node[75].appl 	meanClusterHeadUtility 	16.513501398706
scalar RSUExampleScenario.node[75].appl 	NumberofCH 	0.054054054054054
scalar RSUExampleScenario.node[75].appl 	NumberofON 	0.45945945945946
scalar RSUExampleScenario.node[75].appl 	NumberofFN 	0.48648648648649
scalar RSUExampleScenario.node[75].veinsmobility 	startTime 	180.8
scalar RSUExampleScenario.node[75].veinsmobility 	totalTime 	269.2
scalar RSUExampleScenario.node[75].veinsmobility 	stopTime 	450
scalar RSUExampleScenario.node[75].veinsmobility 	minSpeed 	0
scalar RSUExampleScenario.node[75].veinsmobility 	maxSpeed 	13.999749751696
scalar RSUExampleScenario.node[75].veinsmobility 	totalDistance 	659.02982167441
scalar RSUExampleScenario.node[75].veinsmobility 	totalCO2Emission 	380.54438680068
scalar RSUExampleScenario.node[76].appl 	meanClusterNodes 	10
scalar RSUExampleScenario.node[76].appl 	meanClusterHeadUtility 	17.451007653437
scalar RSUExampleScenario.node[76].appl 	NumberofCH 	0.054054054054054
scalar RSUExampleScenario.node[76].appl 	NumberofON 	0.45945945945946
scalar RSUExampleScenario.node[76].appl 	NumberofFN 	0.48648648648649
scalar RSUExampleScenario.node[76].veinsmobility 	startTime 	183.2
scalar RSUExampleScenario.node[76].veinsmobility 	totalTime 	266.8
scalar RSUExampleScenario.node[76].veinsmobility 	stopTime 	450
scalar RSUExampleScenario.node[76].veinsmobility 	minSpeed 	0
scalar RSUExampleScenario.node[76].veinsmobility 	maxSpeed 	13.998454950827
scalar RSUExampleScenario.node[76].veinsmobility 	totalDistance 	626.28006153655
scalar RSUExampleScenario.node[76].veinsmobility 	totalCO2Emission 	375.07050978514
scalar RSUExampleScenario.node[77].appl 	meanClusterNodes 	6
scalar RSUExampleScenario.node[77].appl 	meanClusterHeadUtility 	16.1688108686
scalar RSUExampleScenario.node[77].appl 	NumberofCH 	0.054054054054054
scalar RSUExampleScenario.node[77].appl 	NumberofON 	0.51351351351351
scalar RSUExampleScenario.node[77].appl 	NumberofFN 	0.43243243243243
scalar RSUExampleScenario.node[77].veinsmobility 	startTime 	185.6
scalar RSUExampleScenario.node[77].veinsmobility 	totalTime 	264.4
scalar RSUExampleScenario.node[77].veinsmobility 	stopTime 	450
scalar RSUExampleScenario.node[77].veinsmobility 	minSpeed 	0
scalar RSUExampleScenario.node[77].veinsmobility 	maxSpeed 	13.998590057571
scalar RSUExampleScenario.node[77].veinsmobility 	totalDistance 	589.9714138912
scalar RSUExampleScenario.node[77].veinsmobility 	totalCO2Emission 	368.05672676876
scalar RSUExampleScenario.node[78].appl 	meanClusterNodes 	11
scalar RSUExampleScenario.node[78].appl 	meanClusterHeadUtility 	18.618957205848
scalar RSUExampleScenario.node[78].appl 	NumberofCH 	0.054054054054054
scalar RSUExampleScenario.node[78].appl 	NumberofON 	0.21621621621622
scalar RSUExampleScenario.node[78].appl 	NumberofFN 	0.72972972972973
scalar RSUExampleScenario.node[78].veinsmobility 	startTime 	188
scalar RSUExampleScenario.node[78].veinsmobility 	totalTime 	262
scalar RSUExampleScenario.node[78].veinsmobility 	stopTime 	450
scalar RSUExampleScenario.node[78].veinsmobility 	minSpeed 	0
scalar RSUExampleScenario.node[78].veinsmobility 	maxSpeed 	13.998985768568
scalar RSUExampleScenario.node[78].veinsmobility 	totalDistance 	557.43693531695
scalar RSUExampleScenario.node[78].veinsmobility 	totalCO2Emission 	362.62387644048
scalar RSUExampleScenario.node[79].appl 	meanClusterNodes 	2.5
scalar RSUExampleScenario.node[79].appl 	meanClusterHeadUtility 	20.639408589307
scalar RSUExampleScenario.node[79].appl 	NumberofCH 	0.054054054054054
scalar RSUExampleScenario.node[79].appl 	NumberofON 	0.32432432432432
scalar RSUExampleScenario.node[79].appl 	NumberofFN 	0.62162162162162
scalar RSUExampleScenario.node[79].veinsmobility 	startTime 	190.4
scalar RSUExampleScenario.node[79].veinsmobility 	totalTime 	259.6
scalar RSUExampleScenario.node[79].veinsmobility 	stopTime 	450
scalar RSUExampleScenario.node[79].veinsmobility 	minSpeed 	0
scalar RSUExampleScenario.node[79].veinsmobility 	maxSpeed 	13.99915297006
scalar RSUExampleScenario.node[79].veinsmobility 	totalDistance 	523.63615385843
scalar RSUExampleScenario.node[79].veinsmobility 	totalCO2Emission 	355.39756955518
scalar RSUExampleScenario.node[8].appl 	meanClusterNodes 	5.5
scalar RSUExampleScenario.node[8].appl 	meanClusterHeadUtility 	17.97401932921
scalar RSUExampleScenario.node[8].appl 	NumberofCH 	0.054054054054054
scalar RSUExampleScenario.node[8].appl 	NumberofON 	0.45945945945946
scalar RSUExampleScenario.node[8].appl 	NumberofFN 	0.48648648648649
scalar RSUExampleScenario.node[8].veinsmobility 	startTime 	19.3
scalar RSUExampleScenario.node[8].veinsmobility 	totalTime 	430.7
scalar RSUExampleScenario.node[8].veinsmobility 	stopTime 	450
scalar RSUExampleScenario.node[8].veinsmobility 	minSpeed 	0
scalar RSUExampleScenario.node[8].veinsmobility 	maxSpeed 	13.999792604079
scalar RSUExampleScenario.node[8].veinsmobility 	totalDistance 	2859.9015869259
scalar RSUExampleScenario.node[8].veinsmobility 	totalCO2Emission 	770.71512322279
scalar RSUExampleScenario.node[80].appl 	meanClusterNodes 	5
scalar RSUExampleScenario.node[80].appl 	meanClusterHeadUtility 	17.948835218273
scalar RSUExampleScenario.node[80].appl 	NumberofCH 	0.054054054054054
scalar RSUExampleScenario.node[80].appl 	NumberofON 	0.40540540540541
scalar RSUExampleScenario.node[80].appl 	NumberofFN 	0.54054054054054
scalar RSUExampleScenario.node[80].veinsmobility 	startTime 	192.9
scalar RSUExampleScenario.node[80].veinsmobility 	totalTime 	257.1
scalar RSUExampleScenario.node[80].veinsmobility 	stopTime 	450
scalar RSUExampleScenario.node[80].veinsmobility 	minSpeed 	0
scalar RSUExampleScenario.node[80].veinsmobility 	maxSpeed 	13.999648323411
scalar RSUExampleScenario.node[80].veinsmobility 	totalDistance 	490.65494437625
scalar RSUExampleScenario.node[80].veinsmobility 	totalCO2Emission 	351.04001386408
scalar RSUExampleScenario.node[81].appl 	meanClusterNodes 	0
scalar RSUExampleScenario.node[81].appl 	meanClusterHeadUtility 	0
scalar RSUExampleScenario.node[81].appl 	NumberofCH 	0
scalar RSUExampleScenario.node[81].appl 	NumberofON 	0.32432432432432
scalar RSUExampleScenario.node[81].appl 	NumberofFN 	0.67567567567568
scalar RSUExampleScenario.node[81].veinsmobility 	startTime 	195.3
scalar RSUExampleScenario.node[81].veinsmobility 	totalTime 	254.7
scalar RSUExampleScenario.node[81].veinsmobility 	stopTime 	450
scalar RSUExampleScenario.node[81].veinsmobility 	minSpeed 	0
scalar RSUExampleScenario.node[81].veinsmobility 	maxSpeed 	13.998509011837
scalar RSUExampleScenario.node[81].veinsmobility 	totalDistance 	458.10465019933
scalar RSUExampleScenario.node[81].veinsmobility 	totalCO2Emission 	346.19509774414
scalar RSUExampleScenario.node[82].appl 	meanClusterNodes 	2
scalar RSUExampleScenario.node[82].appl 	meanClusterHeadUtility 	18.413645342383
scalar RSUExampleScenario.node[82].appl 	NumberofCH 	0.054054054054054
scalar RSUExampleScenario.node[82].appl 	NumberofON 	0.59459459459459
scalar RSUExampleScenario.node[82].appl 	NumberofFN 	0.35135135135135
scalar RSUExampleScenario.node[82].veinsmobility 	startTime 	197.7
scalar RSUExampleScenario.node[82].veinsmobility 	totalTime 	252.3
scalar RSUExampleScenario.node[82].veinsmobility 	stopTime 	450
scalar RSUExampleScenario.node[82].veinsmobility 	minSpeed 	0
scalar RSUExampleScenario.node[82].veinsmobility 	maxSpeed 	13.999980826685
scalar RSUExampleScenario.node[82].veinsmobility 	totalDistance 	424.06903336276
scalar RSUExampleScenario.node[82].veinsmobility 	totalCO2Emission 	338.79286633752
scalar RSUExampleScenario.node[83].appl 	meanClusterNodes 	4
scalar RSUExampleScenario.node[83].appl 	meanClusterHeadUtility 	8.6523649037599
scalar RSUExampleScenario.node[83].appl 	NumberofCH 	0.10810810810811
scalar RSUExampleScenario.node[83].appl 	NumberofON 	0.40540540540541
scalar RSUExampleScenario.node[83].appl 	NumberofFN 	0.48648648648649
scalar RSUExampleScenario.node[83].veinsmobility 	startTime 	200.1
scalar RSUExampleScenario.node[83].veinsmobility 	totalTime 	249.9
scalar RSUExampleScenario.node[83].veinsmobility 	stopTime 	450
scalar RSUExampleScenario.node[83].veinsmobility 	minSpeed 	0
scalar RSUExampleScenario.node[83].veinsmobility 	maxSpeed 	13.99790942336
scalar RSUExampleScenario.node[83].veinsmobility 	totalDistance 	391.32749598158
scalar RSUExampleScenario.node[83].veinsmobility 	totalCO2Emission 	333.75494607743
scalar RSUExampleScenario.node[84].appl 	meanClusterNodes 	10
scalar RSUExampleScenario.node[84].appl 	meanClusterHeadUtility 	17.971145881754
scalar RSUExampleScenario.node[84].appl 	NumberofCH 	0.054054054054054
scalar RSUExampleScenario.node[84].appl 	NumberofON 	0.48648648648649
scalar RSUExampleScenario.node[84].appl 	NumberofFN 	0.45945945945946
scalar RSUExampleScenario.node[84].veinsmobility 	startTime 	202.5
scalar RSUExampleScenario.node[84].veinsmobility 	totalTime 	247.5
scalar RSUExampleScenario.node[84].veinsmobility 	stopTime 	450
scalar RSUExampleScenario.node[84].veinsmobility 	minSpeed 	0
scalar RSUExampleScenario.node[84].veinsmobility 	maxSpeed 	13.998099055819
scalar RSUExampleScenario.node[84].veinsmobility 	totalDistance 	357.81234352893
scalar RSUExampleScenario.node[84].veinsmobility 	totalCO2Emission 	328.67571991813
scalar RSUExampleScenario.node[85].appl 	meanClusterNodes 	5.5
scalar RSUExampleScenario.node[85].appl 	meanClusterHeadUtility 	17.720244530982
scalar RSUExampleScenario.node[85].appl 	NumberofCH 	0.054054054054054
scalar RSUExampleScenario.node[85].appl 	NumberofON 	0.62162162162162
scalar RSUExampleScenario.node[85].appl 	NumberofFN 	0.32432432432432
scalar RSUExampleScenario.node[85].veinsmobility 	startTime 	204.9
scalar RSUExampleScenario.node[85].veinsmobility 	totalTime 	245.1
scalar RSUExampleScenario.node[85].veinsmobility 	stopTime 	450
scalar RSUExampleScenario.node[85].veinsmobility 	minSpeed 	0
scalar RSUExampleScenario.node[85].veinsmobility 	maxSpeed 	13.986977900213
scalar RSUExampleScenario.node[85].veinsmobility 	totalDistance 	323.75064959299
scalar RSUExampleScenario.node[85].veinsmobility 	totalCO2Emission 	322.73834437168
scalar RSUExampleScenario.node[86].appl 	meanClusterNodes 	0
scalar RSUExampleScenario.node[86].appl 	meanClusterHeadUtility 	0
scalar RSUExampleScenario.node[86].appl 	NumberofCH 	0
scalar RSUExampleScenario.node[86].appl 	NumberofON 	0.40540540540541
scalar RSUExampleScenario.node[86].appl 	NumberofFN 	0.59459459459459
scalar RSUExampleScenario.node[86].veinsmobility 	startTime 	207.3
scalar RSUExampleScenario.node[86].veinsmobility 	totalTime 	242.7
scalar RSUExampleScenario.node[86].veinsmobility 	stopTime 	450
scalar RSUExampleScenario.node[86].veinsmobility 	minSpeed 	0
scalar RSUExampleScenario.node[86].veinsmobility 	maxSpeed 	13.844647590339
scalar RSUExampleScenario.node[86].veinsmobility 	totalDistance 	288.68098488531
scalar RSUExampleScenario.node[86].veinsmobility 	totalCO2Emission 	316.03110144956
scalar RSUExampleScenario.node[87].appl 	meanClusterNodes 	7
scalar RSUExampleScenario.node[87].appl 	meanClusterHeadUtility 	18.764873452005
scalar RSUExampleScenario.node[87].appl 	NumberofCH 	0.054054054054054
scalar RSUExampleScenario.node[87].appl 	NumberofON 	0.21621621621622
scalar RSUExampleScenario.node[87].appl 	NumberofFN 	0.72972972972973
scalar RSUExampleScenario.node[87].veinsmobility 	startTime 	209.7
scalar RSUExampleScenario.node[87].veinsmobility 	totalTime 	240.3
scalar RSUExampleScenario.node[87].veinsmobility 	stopTime 	450
scalar RSUExampleScenario.node[87].veinsmobility 	minSpeed 	0
scalar RSUExampleScenario.node[87].veinsmobility 	maxSpeed 	13.759313130503
scalar RSUExampleScenario.node[87].veinsmobility 	totalDistance 	248.56542923542
scalar RSUExampleScenario.node[87].veinsmobility 	totalCO2Emission 	298.29951086735
scalar RSUExampleScenario.node[88].appl 	meanClusterNodes 	5
scalar RSUExampleScenario.node[88].appl 	meanClusterHeadUtility 	18.019095233878
scalar RSUExampleScenario.node[88].appl 	NumberofCH 	0.054054054054054
scalar RSUExampleScenario.node[88].appl 	NumberofON 	0.62162162162162
scalar RSUExampleScenario.node[88].appl 	NumberofFN 	0.32432432432432
scalar RSUExampleScenario.node[88].veinsmobility 	startTime 	212.1
scalar RSUExampleScenario.node[88].veinsmobility 	totalTime 	237.9
scalar RSUExampleScenario.node[88].veinsmobility 	stopTime 	450
scalar RSUExampleScenario.node[88].veinsmobility 	minSpeed 	0
scalar RSUExampleScenario.node[88].veinsmobility 	maxSpeed 	13.889564343013
scalar RSUExampleScenario.node[88].veinsmobility 	totalDistance 	226.12734475092
scalar RSUExampleScenario.node[88].veinsmobility 	totalCO2Emission 	287.19902491457
scalar RSUExampleScenario.node[89].appl 	meanClusterNodes 	9.5
scalar RSUExampleScenario.node[89].appl 	meanClusterHeadUtility 	9.5882012230114
scalar RSUExampleScenario.node[89].appl 	NumberofCH 	0.10810810810811
scalar RSUExampleScenario.node[89].appl 	NumberofON 	0.27027027027027
scalar RSUExampleScenario.node[89].appl 	NumberofFN 	0.62162162162162
scalar RSUExampleScenario.node[89].veinsmobility 	startTime 	214.5
scalar RSUExampleScenario.node[89].veinsmobility 	totalTime 	235.5
scalar RSUExampleScenario.node[89].veinsmobility 	stopTime 	450
scalar RSUExampleScenario.node[89].veinsmobility 	minSpeed 	0
scalar RSUExampleScenario.node[89].veinsmobility 	maxSpeed 	13.817452512394
scalar RSUExampleScenario.node[89].veinsmobility 	totalDistance 	215.49719566248
scalar RSUExampleScenario.node[89].veinsmobility 	totalCO2Emission 	283.3649601576
scalar RSUExampleScenario.node[9].appl 	meanClusterNodes 	6.5
scalar RSUExampleScenario.node[9].appl 	meanClusterHeadUtility 	9.382903644327
scalar RSUExampleScenario.node[9].appl 	NumberofCH 	0.10810810810811
scalar RSUExampleScenario.node[9].appl 	NumberofON 	0.10810810810811
scalar RSUExampleScenario.node[9].appl 	NumberofFN 	0.78378378378378
scalar RSUExampleScenario.node[9].veinsmobility 	startTime 	21.7
scalar RSUExampleScenario.node[9].veinsmobility 	totalTime 	428.3
scalar RSUExampleScenario.node[9].veinsmobility 	stopTime 	450
scalar RSUExampleScenario.node[9].veinsmobility 	minSpeed 	0
scalar RSUExampleScenario.node[9].veinsmobility 	maxSpeed 	13.999959525168
scalar RSUExampleScenario.node[9].veinsmobility 	totalDistance 	2825.3054029355
scalar RSUExampleScenario.node[9].veinsmobility 	totalCO2Emission 	764.15833183932
scalar RSUExampleScenario.node[90].appl 	meanClusterNodes 	3
scalar RSUExampleScenario.node[90].appl 	meanClusterHeadUtility 	17.856370179433
scalar RSUExampleScenario.node[90].appl 	NumberofCH 	0.054054054054054
scalar RSUExampleScenario.node[90].appl 	NumberofON 	0.40540540540541
scalar RSUExampleScenario.node[90].appl 	NumberofFN 	0.54054054054054
scalar RSUExampleScenario.node[90].veinsmobility 	startTime 	217
scalar RSUExampleScenario.node[90].veinsmobility 	totalTime 	233
scalar RSUExampleScenario.node[90].veinsmobility 	stopTime 	450
scalar RSUExampleScenario.node[90].veinsmobility 	minSpeed 	0
scalar RSUExampleScenario.node[90].veinsmobility 	maxSpeed 	13.814234690574
scalar RSUExampleScenario.node[90].veinsmobility 	totalDistance 	202.38519111561
scalar RSUExampleScenario.node[90].veinsmobility 	totalCO2Emission 	280.33771706988
scalar RSUExampleScenario.node[91].appl 	meanClusterNodes 	5.5
scalar RSUExampleScenario.node[91].appl 	meanClusterHeadUtility 	19.380312163205
scalar RSUExampleScenario.node[91].appl 	NumberofCH 	0.054054054054054
scalar RSUExampleScenario.node[91].appl 	NumberofON 	0.43243243243243
scalar RSUExampleScenario.node[91].appl 	NumberofFN 	0.51351351351351
scalar RSUExampleScenario.node[91].veinsmobility 	startTime 	219.4
scalar RSUExampleScenario.node[91].veinsmobility 	totalTime 	230.6
scalar RSUExampleScenario.node[91].veinsmobility 	stopTime 	450
scalar RSUExampleScenario.node[91].veinsmobility 	minSpeed 	0
scalar RSUExampleScenario.node[91].veinsmobility 	maxSpeed 	13.883980367212
scalar RSUExampleScenario.node[91].veinsmobility 	totalDistance 	185.46123373659
scalar RSUExampleScenario.node[91].veinsmobility 	totalCO2Emission 	278.69787531117
scalar RSUExampleScenario.node[92].appl 	meanClusterNodes 	7.5
scalar RSUExampleScenario.node[92].appl 	meanClusterHeadUtility 	18.378121875327
scalar RSUExampleScenario.node[92].appl 	NumberofCH 	0.054054054054054
scalar RSUExampleScenario.node[92].appl 	NumberofON 	0.2972972972973
scalar RSUExampleScenario.node[92].appl 	NumberofFN 	0.64864864864865
scalar RSUExampleScenario.node[92].veinsmobility 	startTime 	221.8
scalar RSUExampleScenario.node[92].veinsmobility 	totalTime 	228.2
scalar RSUExampleScenario.node[92].veinsmobility 	stopTime 	450
scalar RSUExampleScenario.node[92].veinsmobility 	minSpeed 	0
scalar RSUExampleScenario.node[92].veinsmobility 	maxSpeed 	13.823359847309
scalar RSUExampleScenario.node[92].veinsmobility 	totalDistance 	152.27189539357
scalar RSUExampleScenario.node[92].veinsmobility 	totalCO2Emission 	265.16723502796
scalar RSUExampleScenario.node[93].appl 	meanClusterNodes 	0
scalar RSUExampleScenario.node[93].appl 	meanClusterHeadUtility 	0
scalar RSUExampleScenario.node[93].appl 	NumberofCH 	0
scalar RSUExampleScenario.node[93].appl 	NumberofON 	0.45945945945946
scalar RSUExampleScenario.node[93].appl 	NumberofFN 	0.54054054054054
scalar RSUExampleScenario.node[93].veinsmobility 	startTime 	224.2
scalar RSUExampleScenario.node[93].veinsmobility 	totalTime 	225.8
scalar RSUExampleScenario.node[93].veinsmobility 	stopTime 	450
scalar RSUExampleScenario.node[93].veinsmobility 	minSpeed 	0
scalar RSUExampleScenario.node[93].veinsmobility 	maxSpeed 	13.790865070806
scalar RSUExampleScenario.node[93].veinsmobility 	totalDistance 	123.83341073636
scalar RSUExampleScenario.node[93].veinsmobility 	totalCO2Emission 	251.37608544726
scalar RSUExampleScenario.node[94].appl 	meanClusterNodes 	3.5
scalar RSUExampleScenario.node[94].appl 	meanClusterHeadUtility 	18.178030664569
scalar RSUExampleScenario.node[94].appl 	NumberofCH 	0.054054054054054
scalar RSUExampleScenario.node[94].appl 	NumberofON 	0.35135135135135
scalar RSUExampleScenario.node[94].appl 	NumberofFN 	0.59459459459459
scalar RSUExampleScenario.node[94].veinsmobility 	startTime 	226.6
scalar RSUExampleScenario.node[94].veinsmobility 	totalTime 	223.4
scalar RSUExampleScenario.node[94].veinsmobility 	stopTime 	450
scalar RSUExampleScenario.node[94].veinsmobility 	minSpeed 	0
scalar RSUExampleScenario.node[94].veinsmobility 	maxSpeed 	13.839496885983
scalar RSUExampleScenario.node[94].veinsmobility 	totalDistance 	112.38749858941
scalar RSUExampleScenario.node[94].veinsmobility 	totalCO2Emission 	245.67153907354
scalar RSUExampleScenario.node[95].appl 	meanClusterNodes 	6
scalar RSUExampleScenario.node[95].appl 	meanClusterHeadUtility 	19.690264818429
scalar RSUExampleScenario.node[95].appl 	NumberofCH 	0.054054054054054
scalar RSUExampleScenario.node[95].appl 	NumberofON 	0.24324324324324
scalar RSUExampleScenario.node[95].appl 	NumberofFN 	0.7027027027027
scalar RSUExampleScenario.node[95].veinsmobility 	startTime 	229
scalar RSUExampleScenario.node[95].veinsmobility 	totalTime 	221
scalar RSUExampleScenario.node[95].veinsmobility 	stopTime 	450
scalar RSUExampleScenario.node[95].veinsmobility 	minSpeed 	0
scalar RSUExampleScenario.node[95].veinsmobility 	maxSpeed 	13.835588910365
scalar RSUExampleScenario.node[95].veinsmobility 	totalDistance 	99.228644850635
scalar RSUExampleScenario.node[95].veinsmobility 	totalCO2Emission 	242.31966894621
scalar RSUExampleScenario.node[96].appl 	meanClusterNodes 	3
scalar RSUExampleScenario.node[96].appl 	meanClusterHeadUtility 	18.898853232524
scalar RSUExampleScenario.node[96].appl 	NumberofCH 	0.054054054054054
scalar RSUExampleScenario.node[96].appl 	NumberofON 	0.2972972972973
scalar RSUExampleScenario.node[96].appl 	NumberofFN 	0.64864864864865
scalar RSUExampleScenario.node[96].veinsmobility 	startTime 	231.4
scalar RSUExampleScenario.node[96].veinsmobility 	totalTime 	218.6
scalar RSUExampleScenario.node[96].veinsmobility 	stopTime 	450
scalar RSUExampleScenario.node[96].veinsmobility 	minSpeed 	0
scalar RSUExampleScenario.node[96].veinsmobility 	maxSpeed 	13.870168353987
scalar RSUExampleScenario.node[96].veinsmobility 	totalDistance 	83.09952028009
scalar RSUExampleScenario.node[96].veinsmobility 	totalCO2Emission 	239.93735031611
scalar RSUExampleScenario.node[97].appl 	meanClusterNodes 	8
scalar RSUExampleScenario.node[97].appl 	meanClusterHeadUtility 	17.361395788234
scalar RSUExampleScenario.node[97].appl 	NumberofCH 	0.054054054054054
scalar RSUExampleScenario.node[97].appl 	NumberofON 	0.43243243243243
scalar RSUExampleScenario.node[97].appl 	NumberofFN 	0.51351351351351
scalar RSUExampleScenario.node[97].veinsmobility 	startTime 	233.8
scalar RSUExampleScenario.node[97].veinsmobility 	totalTime 	216.2
scalar RSUExampleScenario.node[97].veinsmobility 	stopTime 	450
scalar RSUExampleScenario.node[97].veinsmobility 	minSpeed 	0
scalar RSUExampleScenario.node[97].veinsmobility 	maxSpeed 	12.569896103138
scalar RSUExampleScenario.node[97].veinsmobility 	totalDistance 	57.113572482765
scalar RSUExampleScenario.node[97].veinsmobility 	totalCO2Emission 	232.67742085278
scalar RSUExampleScenario.node[98].appl 	meanClusterNodes 	11
scalar RSUExampleScenario.node[98].appl 	meanClusterHeadUtility 	18.245412352972
scalar RSUExampleScenario.node[98].appl 	NumberofCH 	0.054054054054054
scalar RSUExampleScenario.node[98].appl 	NumberofON 	0.18918918918919
scalar RSUExampleScenario.node[98].appl 	NumberofFN 	0.75675675675676
scalar RSUExampleScenario.node[98].veinsmobility 	startTime 	236.2
scalar RSUExampleScenario.node[98].veinsmobility 	totalTime 	213.8
scalar RSUExampleScenario.node[98].veinsmobility 	stopTime 	450
scalar RSUExampleScenario.node[98].veinsmobility 	minSpeed 	0
scalar RSUExampleScenario.node[98].veinsmobility 	maxSpeed 	7.7911793400297
scalar RSUExampleScenario.node[98].veinsmobility 	totalDistance 	22.027706316733
scalar RSUExampleScenario.node[98].veinsmobility 	totalCO2Emission 	216.73615686332
scalar RSUExampleScenario.node[99].appl 	meanClusterNodes 	0
scalar RSUExampleScenario.node[99].appl 	meanClusterHeadUtility 	0
scalar RSUExampleScenario.node[99].appl 	NumberofCH 	0
scalar RSUExampleScenario.node[99].appl 	NumberofON 	0.62162162162162
scalar RSUExampleScenario.node[99].appl 	NumberofFN 	0.37837837837838
scalar RSUExampleScenario.node[99].veinsmobility 	startTime 	238.6
scalar RSUExampleScenario.node[99].veinsmobility 	totalTime 	211.4
scalar RSUExampleScenario.node[99].veinsmobility 	stopTime 	450
scalar RSUExampleScenario.node[99].veinsmobility 	minSpeed 	0
scalar RSUExampleScenario.node[99].veinsmobility 	maxSpeed 	3.117842167895
scalar RSUExampleScenario.node[99].veinsmobility 	totalDistance 	3.3951223081475
scalar RSUExampleScenario.node[99].veinsmobility 	totalCO2Emission 	207.13310659781
