version 2
run statisticRVV-227-20150326-09:10:23-3324
attr c 5
attr configname statisticRVV
attr datetime 20150326-09:10:23
attr experiment statisticRVV
attr inifile omnetpp.ini
attr iterationvars "$sc=\"erlangen-medium.launchd.xml\", $p=1/5, $c=5"
attr iterationvars2 "$sc=\"erlangen-medium.launchd.xml\", $p=1/5, $c=5, $repetition=7"
attr measurement "$sc=\"erlangen-medium.launchd.xml\", $p=1/5, $c=5"
attr network RSUExampleScenario
attr p 1/5
attr processid 3324
attr repetition 7
attr replication #7
attr resultdir results
attr runnumber 227
attr sc "\"erlangen-medium.launchd.xml\""
attr seedset 227

scalar . 	c 	5
scalar RSUExampleScenario.node[0].veinsmobility 	startTime 	0.1
scalar RSUExampleScenario.node[0].veinsmobility 	totalTime 	264.4
scalar RSUExampleScenario.node[0].veinsmobility 	stopTime 	264.6
scalar RSUExampleScenario.node[0].veinsmobility 	minSpeed 	0.25834287109226
scalar RSUExampleScenario.node[0].veinsmobility 	maxSpeed 	13.999993450523
scalar RSUExampleScenario.node[0].veinsmobility 	totalDistance 	3409.8279486059
scalar RSUExampleScenario.node[0].veinsmobility 	totalCO2Emission 	695.08719098115
scalar RSUExampleScenario.node[1].veinsmobility 	startTime 	3.1
scalar RSUExampleScenario.node[1].veinsmobility 	totalTime 	265.4
scalar RSUExampleScenario.node[1].veinsmobility 	stopTime 	268.6
scalar RSUExampleScenario.node[1].veinsmobility 	minSpeed 	0.25288700854802
scalar RSUExampleScenario.node[1].veinsmobility 	maxSpeed 	13.999990814333
scalar RSUExampleScenario.node[1].veinsmobility 	totalDistance 	3409.6589054033
scalar RSUExampleScenario.node[1].veinsmobility 	totalCO2Emission 	693.12734033239
scalar RSUExampleScenario.node[2].veinsmobility 	startTime 	6.1
scalar RSUExampleScenario.node[2].veinsmobility 	totalTime 	266
scalar RSUExampleScenario.node[2].veinsmobility 	stopTime 	272.2
scalar RSUExampleScenario.node[2].veinsmobility 	minSpeed 	0.25036155864992
scalar RSUExampleScenario.node[2].veinsmobility 	maxSpeed 	13.999899081881
scalar RSUExampleScenario.node[2].veinsmobility 	totalDistance 	3409.3929802378
scalar RSUExampleScenario.node[2].veinsmobility 	totalCO2Emission 	690.72405773736
scalar RSUExampleScenario.node[3].veinsmobility 	startTime 	9.1
scalar RSUExampleScenario.node[3].veinsmobility 	totalTime 	266.4
scalar RSUExampleScenario.node[3].veinsmobility 	stopTime 	275.6
scalar RSUExampleScenario.node[3].veinsmobility 	minSpeed 	0.25531896304479
scalar RSUExampleScenario.node[3].veinsmobility 	maxSpeed 	13.999810321594
scalar RSUExampleScenario.node[3].veinsmobility 	totalDistance 	3409.3088947519
scalar RSUExampleScenario.node[3].veinsmobility 	totalCO2Emission 	692.83912596521
scalar RSUExampleScenario.node[4].veinsmobility 	startTime 	12.1
scalar RSUExampleScenario.node[4].veinsmobility 	totalTime 	266.8
scalar RSUExampleScenario.node[4].veinsmobility 	stopTime 	279
scalar RSUExampleScenario.node[4].veinsmobility 	minSpeed 	0.25527291834075
scalar RSUExampleScenario.node[4].veinsmobility 	maxSpeed 	13.999994202016
scalar RSUExampleScenario.node[4].veinsmobility 	totalDistance 	3409.4492542501
scalar RSUExampleScenario.node[4].veinsmobility 	totalCO2Emission 	693.73777554034
scalar RSUExampleScenario.node[5].veinsmobility 	startTime 	15.1
scalar RSUExampleScenario.node[5].veinsmobility 	totalTime 	266.9
scalar RSUExampleScenario.node[5].veinsmobility 	stopTime 	282.1
scalar RSUExampleScenario.node[5].veinsmobility 	minSpeed 	0.2555367641123
scalar RSUExampleScenario.node[5].veinsmobility 	maxSpeed 	13.99998909381
scalar RSUExampleScenario.node[5].veinsmobility 	totalDistance 	3413.6307731456
scalar RSUExampleScenario.node[5].veinsmobility 	totalCO2Emission 	689.81328806633
scalar RSUExampleScenario.node[6].veinsmobility 	startTime 	18.1
scalar RSUExampleScenario.node[6].veinsmobility 	totalTime 	266.9
scalar RSUExampleScenario.node[6].veinsmobility 	stopTime 	285.1
scalar RSUExampleScenario.node[6].veinsmobility 	minSpeed 	0.25565990343201
scalar RSUExampleScenario.node[6].veinsmobility 	maxSpeed 	13.999999096652
scalar RSUExampleScenario.node[6].veinsmobility 	totalDistance 	3409.3833733835
scalar RSUExampleScenario.node[6].veinsmobility 	totalCO2Emission 	689.28940947646
scalar RSUExampleScenario.node[7].veinsmobility 	startTime 	21.1
scalar RSUExampleScenario.node[7].veinsmobility 	totalTime 	266.9
scalar RSUExampleScenario.node[7].veinsmobility 	stopTime 	288.1
scalar RSUExampleScenario.node[7].veinsmobility 	minSpeed 	0.24870894078258
scalar RSUExampleScenario.node[7].veinsmobility 	maxSpeed 	13.999981699674
scalar RSUExampleScenario.node[7].veinsmobility 	totalDistance 	3413.7691118981
scalar RSUExampleScenario.node[7].veinsmobility 	totalCO2Emission 	691.62389373146
scalar RSUExampleScenario.node[8].veinsmobility 	startTime 	24.1
scalar RSUExampleScenario.node[8].veinsmobility 	totalTime 	267
scalar RSUExampleScenario.node[8].veinsmobility 	stopTime 	291.2
scalar RSUExampleScenario.node[8].veinsmobility 	minSpeed 	0.25159244913515
scalar RSUExampleScenario.node[8].veinsmobility 	maxSpeed 	13.999760218426
scalar RSUExampleScenario.node[8].veinsmobility 	totalDistance 	3409.6155307585
scalar RSUExampleScenario.node[8].veinsmobility 	totalCO2Emission 	692.71961484248
scalar RSUExampleScenario.node[9].veinsmobility 	startTime 	27.1
scalar RSUExampleScenario.node[9].veinsmobility 	totalTime 	267.1
scalar RSUExampleScenario.node[9].veinsmobility 	stopTime 	294.3
scalar RSUExampleScenario.node[9].veinsmobility 	minSpeed 	0.25150217790972
scalar RSUExampleScenario.node[9].veinsmobility 	maxSpeed 	13.999983491872
scalar RSUExampleScenario.node[9].veinsmobility 	totalDistance 	3413.318911432
scalar RSUExampleScenario.node[9].veinsmobility 	totalCO2Emission 	689.2412929034
scalar RSUExampleScenario.node[10].veinsmobility 	startTime 	30.1
scalar RSUExampleScenario.node[10].veinsmobility 	totalTime 	267.2
scalar RSUExampleScenario.node[10].veinsmobility 	stopTime 	297.4
scalar RSUExampleScenario.node[10].veinsmobility 	minSpeed 	0.25545369512332
scalar RSUExampleScenario.node[10].veinsmobility 	maxSpeed 	13.999974826269
scalar RSUExampleScenario.node[10].veinsmobility 	totalDistance 	3409.3719168416
scalar RSUExampleScenario.node[10].veinsmobility 	totalCO2Emission 	693.6000230921
scalar RSUExampleScenario.node[11].veinsmobility 	startTime 	33.1
scalar RSUExampleScenario.node[11].veinsmobility 	totalTime 	267.2
scalar RSUExampleScenario.node[11].veinsmobility 	stopTime 	300.4
scalar RSUExampleScenario.node[11].veinsmobility 	minSpeed 	0.25661527704727
scalar RSUExampleScenario.node[11].veinsmobility 	maxSpeed 	13.999979862196
scalar RSUExampleScenario.node[11].veinsmobility 	totalDistance 	3413.5535799637
scalar RSUExampleScenario.node[11].veinsmobility 	totalCO2Emission 	693.7159754439
scalar RSUExampleScenario.node[12].veinsmobility 	startTime 	36.1
scalar RSUExampleScenario.node[12].veinsmobility 	totalTime 	267.3
scalar RSUExampleScenario.node[12].veinsmobility 	stopTime 	303.5
scalar RSUExampleScenario.node[12].veinsmobility 	minSpeed 	0.25308045642264
scalar RSUExampleScenario.node[12].veinsmobility 	maxSpeed 	13.999914710543
scalar RSUExampleScenario.node[12].veinsmobility 	totalDistance 	3409.9719460355
scalar RSUExampleScenario.node[12].veinsmobility 	totalCO2Emission 	693.69478325953
scalar RSUExampleScenario.node[13].veinsmobility 	startTime 	39.1
scalar RSUExampleScenario.node[13].veinsmobility 	totalTime 	267.4
scalar RSUExampleScenario.node[13].veinsmobility 	stopTime 	306.6
scalar RSUExampleScenario.node[13].veinsmobility 	minSpeed 	0.24868721634289
scalar RSUExampleScenario.node[13].veinsmobility 	maxSpeed 	13.999998036274
scalar RSUExampleScenario.node[13].veinsmobility 	totalDistance 	3414.086901601
scalar RSUExampleScenario.node[13].veinsmobility 	totalCO2Emission 	692.99809259419
scalar RSUExampleScenario.node[14].veinsmobility 	startTime 	42.1
scalar RSUExampleScenario.node[14].veinsmobility 	totalTime 	267.5
scalar RSUExampleScenario.node[14].veinsmobility 	stopTime 	309.7
scalar RSUExampleScenario.node[14].veinsmobility 	minSpeed 	0.25203290714766
scalar RSUExampleScenario.node[14].veinsmobility 	maxSpeed 	13.99984674203
scalar RSUExampleScenario.node[14].veinsmobility 	totalDistance 	3409.2361315683
scalar RSUExampleScenario.node[14].veinsmobility 	totalCO2Emission 	687.06773046961
scalar RSUExampleScenario.node[15].veinsmobility 	startTime 	45.1
scalar RSUExampleScenario.node[15].veinsmobility 	totalTime 	267.5
scalar RSUExampleScenario.node[15].veinsmobility 	stopTime 	312.7
scalar RSUExampleScenario.node[15].veinsmobility 	minSpeed 	0.25260034897993
scalar RSUExampleScenario.node[15].veinsmobility 	maxSpeed 	13.999980939645
scalar RSUExampleScenario.node[15].veinsmobility 	totalDistance 	3413.3960688146
scalar RSUExampleScenario.node[15].veinsmobility 	totalCO2Emission 	690.87499501188
scalar RSUExampleScenario.node[16].veinsmobility 	startTime 	48.1
scalar RSUExampleScenario.node[16].veinsmobility 	totalTime 	267.6
scalar RSUExampleScenario.node[16].veinsmobility 	stopTime 	315.8
scalar RSUExampleScenario.node[16].veinsmobility 	minSpeed 	0.25157933092141
scalar RSUExampleScenario.node[16].veinsmobility 	maxSpeed 	13.999875434898
scalar RSUExampleScenario.node[16].veinsmobility 	totalDistance 	3409.6616562242
scalar RSUExampleScenario.node[16].veinsmobility 	totalCO2Emission 	690.67853571347
scalar RSUExampleScenario.node[17].veinsmobility 	startTime 	51.1
scalar RSUExampleScenario.node[17].veinsmobility 	totalTime 	267.7
scalar RSUExampleScenario.node[17].veinsmobility 	stopTime 	318.9
scalar RSUExampleScenario.node[17].veinsmobility 	minSpeed 	0.25642236172571
scalar RSUExampleScenario.node[17].veinsmobility 	maxSpeed 	13.999921148664
scalar RSUExampleScenario.node[17].veinsmobility 	totalDistance 	3413.4917065274
scalar RSUExampleScenario.node[17].veinsmobility 	totalCO2Emission 	692.19848301783
scalar RSUExampleScenario.node[18].veinsmobility 	startTime 	54.1
scalar RSUExampleScenario.node[18].veinsmobility 	totalTime 	267.8
scalar RSUExampleScenario.node[18].veinsmobility 	stopTime 	322
scalar RSUExampleScenario.node[18].veinsmobility 	minSpeed 	0.25351132100984
scalar RSUExampleScenario.node[18].veinsmobility 	maxSpeed 	13.999991334337
scalar RSUExampleScenario.node[18].veinsmobility 	totalDistance 	3409.4350306944
scalar RSUExampleScenario.node[18].veinsmobility 	totalCO2Emission 	693.34085141915
scalar RSUExampleScenario.node[19].veinsmobility 	startTime 	57.1
scalar RSUExampleScenario.node[19].veinsmobility 	totalTime 	268
scalar RSUExampleScenario.node[19].veinsmobility 	stopTime 	325.2
scalar RSUExampleScenario.node[19].veinsmobility 	minSpeed 	0.25024079546984
scalar RSUExampleScenario.node[19].veinsmobility 	maxSpeed 	13.999929472087
scalar RSUExampleScenario.node[19].veinsmobility 	totalDistance 	3413.8833500262
scalar RSUExampleScenario.node[19].veinsmobility 	totalCO2Emission 	688.80953311705
scalar RSUExampleScenario.node[20].veinsmobility 	startTime 	60.1
scalar RSUExampleScenario.node[20].veinsmobility 	totalTime 	268.2
scalar RSUExampleScenario.node[20].veinsmobility 	stopTime 	328.4
scalar RSUExampleScenario.node[20].veinsmobility 	minSpeed 	0.25804785573855
scalar RSUExampleScenario.node[20].veinsmobility 	maxSpeed 	13.999907825303
scalar RSUExampleScenario.node[20].veinsmobility 	totalDistance 	3409.7450521818
scalar RSUExampleScenario.node[20].veinsmobility 	totalCO2Emission 	691.68604393175
scalar RSUExampleScenario.node[21].veinsmobility 	startTime 	63.1
scalar RSUExampleScenario.node[21].veinsmobility 	totalTime 	268.5
scalar RSUExampleScenario.node[21].veinsmobility 	stopTime 	331.7
scalar RSUExampleScenario.node[21].veinsmobility 	minSpeed 	0.2475542503458
scalar RSUExampleScenario.node[21].veinsmobility 	maxSpeed 	13.999968247886
scalar RSUExampleScenario.node[21].veinsmobility 	totalDistance 	3413.7149306175
scalar RSUExampleScenario.node[21].veinsmobility 	totalCO2Emission 	691.76482863891
scalar RSUExampleScenario.node[22].veinsmobility 	startTime 	66.1
scalar RSUExampleScenario.node[22].veinsmobility 	totalTime 	268.8
scalar RSUExampleScenario.node[22].veinsmobility 	stopTime 	335
scalar RSUExampleScenario.node[22].veinsmobility 	minSpeed 	0.25277513844357
scalar RSUExampleScenario.node[22].veinsmobility 	maxSpeed 	13.999881882251
scalar RSUExampleScenario.node[22].veinsmobility 	totalDistance 	3410.0959032212
scalar RSUExampleScenario.node[22].veinsmobility 	totalCO2Emission 	690.73820519346
scalar RSUExampleScenario.node[23].veinsmobility 	startTime 	69.1
scalar RSUExampleScenario.node[23].veinsmobility 	totalTime 	269.2
scalar RSUExampleScenario.node[23].veinsmobility 	stopTime 	338.4
scalar RSUExampleScenario.node[23].veinsmobility 	minSpeed 	0.24832718457631
scalar RSUExampleScenario.node[23].veinsmobility 	maxSpeed 	13.999990863882
scalar RSUExampleScenario.node[23].veinsmobility 	totalDistance 	3413.791341166
scalar RSUExampleScenario.node[23].veinsmobility 	totalCO2Emission 	692.83059444349
scalar RSUExampleScenario.node[24].veinsmobility 	startTime 	72.1
scalar RSUExampleScenario.node[24].veinsmobility 	totalTime 	269.6
scalar RSUExampleScenario.node[24].veinsmobility 	stopTime 	341.8
scalar RSUExampleScenario.node[24].veinsmobility 	minSpeed 	0.25131268654484
scalar RSUExampleScenario.node[24].veinsmobility 	maxSpeed 	13.999959525773
scalar RSUExampleScenario.node[24].veinsmobility 	totalDistance 	3409.7101259104
scalar RSUExampleScenario.node[24].veinsmobility 	totalCO2Emission 	695.04419221499
scalar RSUExampleScenario.node[25].veinsmobility 	startTime 	75.1
scalar RSUExampleScenario.node[25].veinsmobility 	totalTime 	270.1
scalar RSUExampleScenario.node[25].veinsmobility 	stopTime 	345.3
scalar RSUExampleScenario.node[25].veinsmobility 	minSpeed 	0.25082925825333
scalar RSUExampleScenario.node[25].veinsmobility 	maxSpeed 	13.999938463524
scalar RSUExampleScenario.node[25].veinsmobility 	totalDistance 	3414.147997681
scalar RSUExampleScenario.node[25].veinsmobility 	totalCO2Emission 	691.75086541944
scalar RSUExampleScenario.node[26].veinsmobility 	startTime 	78.1
scalar RSUExampleScenario.node[26].veinsmobility 	totalTime 	270.7
scalar RSUExampleScenario.node[26].veinsmobility 	stopTime 	348.9
scalar RSUExampleScenario.node[26].veinsmobility 	minSpeed 	0.25077709490061
scalar RSUExampleScenario.node[26].veinsmobility 	maxSpeed 	13.999958883063
scalar RSUExampleScenario.node[26].veinsmobility 	totalDistance 	3410.2149542267
scalar RSUExampleScenario.node[26].veinsmobility 	totalCO2Emission 	692.34009619186
scalar RSUExampleScenario.node[27].veinsmobility 	startTime 	81.1
scalar RSUExampleScenario.node[27].veinsmobility 	totalTime 	271.3
scalar RSUExampleScenario.node[27].veinsmobility 	stopTime 	352.5
scalar RSUExampleScenario.node[27].veinsmobility 	minSpeed 	0.25092489073169
scalar RSUExampleScenario.node[27].veinsmobility 	maxSpeed 	13.999931971405
scalar RSUExampleScenario.node[27].veinsmobility 	totalDistance 	3414.0258905278
scalar RSUExampleScenario.node[27].veinsmobility 	totalCO2Emission 	695.86726012378
scalar RSUExampleScenario.node[28].veinsmobility 	startTime 	84.1
scalar RSUExampleScenario.node[28].veinsmobility 	totalTime 	271.9
scalar RSUExampleScenario.node[28].veinsmobility 	stopTime 	356.1
scalar RSUExampleScenario.node[28].veinsmobility 	minSpeed 	0.25722658867761
scalar RSUExampleScenario.node[28].veinsmobility 	maxSpeed 	13.999859912992
scalar RSUExampleScenario.node[28].veinsmobility 	totalDistance 	3409.6390036156
scalar RSUExampleScenario.node[28].veinsmobility 	totalCO2Emission 	699.10685330802
scalar RSUExampleScenario.node[29].veinsmobility 	startTime 	87.1
scalar RSUExampleScenario.node[29].veinsmobility 	totalTime 	272.5
scalar RSUExampleScenario.node[29].veinsmobility 	stopTime 	359.7
scalar RSUExampleScenario.node[29].veinsmobility 	minSpeed 	0.25893635945977
scalar RSUExampleScenario.node[29].veinsmobility 	maxSpeed 	13.999999953266
scalar RSUExampleScenario.node[29].veinsmobility 	totalDistance 	3409.7407208549
scalar RSUExampleScenario.node[29].veinsmobility 	totalCO2Emission 	691.34216599506
scalar RSUExampleScenario.node[30].veinsmobility 	startTime 	90.1
scalar RSUExampleScenario.node[30].veinsmobility 	totalTime 	273.2
scalar RSUExampleScenario.node[30].veinsmobility 	stopTime 	363.4
scalar RSUExampleScenario.node[30].veinsmobility 	minSpeed 	0.25227114084456
scalar RSUExampleScenario.node[30].veinsmobility 	maxSpeed 	13.999789553126
scalar RSUExampleScenario.node[30].veinsmobility 	totalDistance 	3414.1272273654
scalar RSUExampleScenario.node[30].veinsmobility 	totalCO2Emission 	694.49097650002
scalar RSUExampleScenario.node[31].veinsmobility 	startTime 	93.1
scalar RSUExampleScenario.node[31].veinsmobility 	totalTime 	273.9
scalar RSUExampleScenario.node[31].veinsmobility 	stopTime 	367.1
scalar RSUExampleScenario.node[31].veinsmobility 	minSpeed 	0.25489446596964
scalar RSUExampleScenario.node[31].veinsmobility 	maxSpeed 	13.999899865307
scalar RSUExampleScenario.node[31].veinsmobility 	totalDistance 	3410.0995019577
scalar RSUExampleScenario.node[31].veinsmobility 	totalCO2Emission 	697.0977622276
scalar RSUExampleScenario.node[32].veinsmobility 	startTime 	96.1
scalar RSUExampleScenario.node[32].veinsmobility 	totalTime 	274.6
scalar RSUExampleScenario.node[32].veinsmobility 	stopTime 	370.8
scalar RSUExampleScenario.node[32].veinsmobility 	minSpeed 	0.24770901143923
scalar RSUExampleScenario.node[32].veinsmobility 	maxSpeed 	13.999901043065
scalar RSUExampleScenario.node[32].veinsmobility 	totalDistance 	3413.9624982968
scalar RSUExampleScenario.node[32].veinsmobility 	totalCO2Emission 	693.04900583863
scalar RSUExampleScenario.node[33].veinsmobility 	startTime 	99.1
scalar RSUExampleScenario.node[33].veinsmobility 	totalTime 	275.2
scalar RSUExampleScenario.node[33].veinsmobility 	stopTime 	374.4
scalar RSUExampleScenario.node[33].veinsmobility 	minSpeed 	0.25429128075112
scalar RSUExampleScenario.node[33].veinsmobility 	maxSpeed 	13.999957123373
scalar RSUExampleScenario.node[33].veinsmobility 	totalDistance 	3409.3726035808
scalar RSUExampleScenario.node[33].veinsmobility 	totalCO2Emission 	695.78259558071
scalar RSUExampleScenario.node[34].veinsmobility 	startTime 	102.1
scalar RSUExampleScenario.node[34].veinsmobility 	totalTime 	275.9
scalar RSUExampleScenario.node[34].veinsmobility 	stopTime 	378.1
scalar RSUExampleScenario.node[34].veinsmobility 	minSpeed 	0.25085910256091
scalar RSUExampleScenario.node[34].veinsmobility 	maxSpeed 	13.999990289274
scalar RSUExampleScenario.node[34].veinsmobility 	totalDistance 	3414.1782364949
scalar RSUExampleScenario.node[34].veinsmobility 	totalCO2Emission 	695.4106945337
scalar RSUExampleScenario.node[35].veinsmobility 	startTime 	105.1
scalar RSUExampleScenario.node[35].veinsmobility 	totalTime 	276.6
scalar RSUExampleScenario.node[35].veinsmobility 	stopTime 	381.8
scalar RSUExampleScenario.node[35].veinsmobility 	minSpeed 	0.25663219737983
scalar RSUExampleScenario.node[35].veinsmobility 	maxSpeed 	13.999956933442
scalar RSUExampleScenario.node[35].veinsmobility 	totalDistance 	3409.7793007878
scalar RSUExampleScenario.node[35].veinsmobility 	totalCO2Emission 	695.74837203094
scalar RSUExampleScenario.node[36].veinsmobility 	startTime 	108.1
scalar RSUExampleScenario.node[36].veinsmobility 	totalTime 	277.3
scalar RSUExampleScenario.node[36].veinsmobility 	stopTime 	385.5
scalar RSUExampleScenario.node[36].veinsmobility 	minSpeed 	0.2548204508943
scalar RSUExampleScenario.node[36].veinsmobility 	maxSpeed 	13.999965441893
scalar RSUExampleScenario.node[36].veinsmobility 	totalDistance 	3414.1219865423
scalar RSUExampleScenario.node[36].veinsmobility 	totalCO2Emission 	697.420093761
scalar RSUExampleScenario.node[37].veinsmobility 	startTime 	111.1
scalar RSUExampleScenario.node[37].veinsmobility 	totalTime 	278
scalar RSUExampleScenario.node[37].veinsmobility 	stopTime 	389.2
scalar RSUExampleScenario.node[37].veinsmobility 	minSpeed 	0.25622210744419
scalar RSUExampleScenario.node[37].veinsmobility 	maxSpeed 	13.999884376514
scalar RSUExampleScenario.node[37].veinsmobility 	totalDistance 	3409.8595617382
scalar RSUExampleScenario.node[37].veinsmobility 	totalCO2Emission 	702.55859417622
scalar RSUExampleScenario.node[38].veinsmobility 	startTime 	114.1
scalar RSUExampleScenario.node[38].veinsmobility 	totalTime 	278.7
scalar RSUExampleScenario.node[38].veinsmobility 	stopTime 	392.9
scalar RSUExampleScenario.node[38].veinsmobility 	minSpeed 	0.24833335314295
scalar RSUExampleScenario.node[38].veinsmobility 	maxSpeed 	13.99992047505
scalar RSUExampleScenario.node[38].veinsmobility 	totalDistance 	3413.719170693
scalar RSUExampleScenario.node[38].veinsmobility 	totalCO2Emission 	697.32010419011
scalar RSUExampleScenario.node[39].veinsmobility 	startTime 	117.1
scalar RSUExampleScenario.node[39].veinsmobility 	totalTime 	279.3
scalar RSUExampleScenario.node[39].veinsmobility 	stopTime 	396.5
scalar RSUExampleScenario.node[39].veinsmobility 	minSpeed 	0.25698798153433
scalar RSUExampleScenario.node[39].veinsmobility 	maxSpeed 	13.999960452488
scalar RSUExampleScenario.node[39].veinsmobility 	totalDistance 	3409.4604949895
scalar RSUExampleScenario.node[39].veinsmobility 	totalCO2Emission 	701.56690017084
scalar RSUExampleScenario.node[40].veinsmobility 	startTime 	120.1
scalar RSUExampleScenario.node[40].veinsmobility 	totalTime 	280
scalar RSUExampleScenario.node[40].veinsmobility 	stopTime 	400.2
scalar RSUExampleScenario.node[40].veinsmobility 	minSpeed 	0.25609194162092
scalar RSUExampleScenario.node[40].veinsmobility 	maxSpeed 	13.999784393949
scalar RSUExampleScenario.node[40].veinsmobility 	totalDistance 	3409.9790458763
scalar RSUExampleScenario.node[40].veinsmobility 	totalCO2Emission 	700.78897617277
scalar RSUExampleScenario.node[41].veinsmobility 	startTime 	123.1
scalar RSUExampleScenario.node[41].veinsmobility 	totalTime 	280.7
scalar RSUExampleScenario.node[41].veinsmobility 	stopTime 	403.9
scalar RSUExampleScenario.node[41].veinsmobility 	minSpeed 	0.24986701584584
scalar RSUExampleScenario.node[41].veinsmobility 	maxSpeed 	13.999941432057
scalar RSUExampleScenario.node[41].veinsmobility 	totalDistance 	3413.8994647257
scalar RSUExampleScenario.node[41].veinsmobility 	totalCO2Emission 	703.42461943662
scalar RSUExampleScenario.node[42].veinsmobility 	startTime 	126.1
scalar RSUExampleScenario.node[42].veinsmobility 	totalTime 	281.4
scalar RSUExampleScenario.node[42].veinsmobility 	stopTime 	407.6
scalar RSUExampleScenario.node[42].veinsmobility 	minSpeed 	0.25760544668208
scalar RSUExampleScenario.node[42].veinsmobility 	maxSpeed 	13.999987261719
scalar RSUExampleScenario.node[42].veinsmobility 	totalDistance 	3410.0902684851
scalar RSUExampleScenario.node[42].veinsmobility 	totalCO2Emission 	702.89362339209
scalar RSUExampleScenario.node[43].veinsmobility 	startTime 	129.1
scalar RSUExampleScenario.node[43].veinsmobility 	totalTime 	282.2
scalar RSUExampleScenario.node[43].veinsmobility 	stopTime 	411.4
scalar RSUExampleScenario.node[43].veinsmobility 	minSpeed 	0.25410571959312
scalar RSUExampleScenario.node[43].veinsmobility 	maxSpeed 	13.999914493945
scalar RSUExampleScenario.node[43].veinsmobility 	totalDistance 	3414.3289641006
scalar RSUExampleScenario.node[43].veinsmobility 	totalCO2Emission 	702.28156875453
scalar RSUExampleScenario.node[44].veinsmobility 	startTime 	132.1
scalar RSUExampleScenario.node[44].veinsmobility 	totalTime 	283
scalar RSUExampleScenario.node[44].veinsmobility 	stopTime 	415.2
scalar RSUExampleScenario.node[44].veinsmobility 	minSpeed 	0.25010675578658
scalar RSUExampleScenario.node[44].veinsmobility 	maxSpeed 	13.99988237577
scalar RSUExampleScenario.node[44].veinsmobility 	totalDistance 	3409.8037178802
scalar RSUExampleScenario.node[44].veinsmobility 	totalCO2Emission 	707.6042367674
scalar RSUExampleScenario.node[45].veinsmobility 	startTime 	135.1
scalar RSUExampleScenario.node[45].veinsmobility 	totalTime 	283.6
scalar RSUExampleScenario.node[45].veinsmobility 	stopTime 	418.8
scalar RSUExampleScenario.node[45].veinsmobility 	minSpeed 	0.25906567500392
scalar RSUExampleScenario.node[45].veinsmobility 	maxSpeed 	13.999966270055
scalar RSUExampleScenario.node[45].veinsmobility 	totalDistance 	3413.8045391033
scalar RSUExampleScenario.node[45].veinsmobility 	totalCO2Emission 	705.87016452998
scalar RSUExampleScenario.node[46].veinsmobility 	startTime 	138.1
scalar RSUExampleScenario.node[46].veinsmobility 	totalTime 	284.3
scalar RSUExampleScenario.node[46].veinsmobility 	stopTime 	422.5
scalar RSUExampleScenario.node[46].veinsmobility 	minSpeed 	0.247128288612
scalar RSUExampleScenario.node[46].veinsmobility 	maxSpeed 	13.99987135214
scalar RSUExampleScenario.node[46].veinsmobility 	totalDistance 	3409.5335206688
scalar RSUExampleScenario.node[46].veinsmobility 	totalCO2Emission 	705.42779798243
scalar RSUExampleScenario.node[47].veinsmobility 	startTime 	141.1
scalar RSUExampleScenario.node[47].veinsmobility 	totalTime 	285
scalar RSUExampleScenario.node[47].veinsmobility 	stopTime 	426.2
scalar RSUExampleScenario.node[47].veinsmobility 	minSpeed 	0.25449573970959
scalar RSUExampleScenario.node[47].veinsmobility 	maxSpeed 	13.99987212582
scalar RSUExampleScenario.node[47].veinsmobility 	totalDistance 	3413.7698688401
scalar RSUExampleScenario.node[47].veinsmobility 	totalCO2Emission 	708.82683044019
scalar RSUExampleScenario.node[48].veinsmobility 	startTime 	144.1
scalar RSUExampleScenario.node[48].veinsmobility 	totalTime 	285.7
scalar RSUExampleScenario.node[48].veinsmobility 	stopTime 	429.9
scalar RSUExampleScenario.node[48].veinsmobility 	minSpeed 	0.2587517931771
scalar RSUExampleScenario.node[48].veinsmobility 	maxSpeed 	13.999922069174
scalar RSUExampleScenario.node[48].veinsmobility 	totalDistance 	3409.8638442778
scalar RSUExampleScenario.node[48].veinsmobility 	totalCO2Emission 	704.68183275049
scalar RSUExampleScenario.node[49].veinsmobility 	startTime 	147.1
scalar RSUExampleScenario.node[49].veinsmobility 	totalTime 	286.4
scalar RSUExampleScenario.node[49].veinsmobility 	stopTime 	433.6
scalar RSUExampleScenario.node[49].veinsmobility 	minSpeed 	0.25283455921733
scalar RSUExampleScenario.node[49].veinsmobility 	maxSpeed 	13.999845565029
scalar RSUExampleScenario.node[49].veinsmobility 	totalDistance 	3413.8243124268
scalar RSUExampleScenario.node[49].veinsmobility 	totalCO2Emission 	708.49206902831
scalar RSUExampleScenario.node[50].veinsmobility 	startTime 	150.1
scalar RSUExampleScenario.node[50].veinsmobility 	totalTime 	287.1
scalar RSUExampleScenario.node[50].veinsmobility 	stopTime 	437.3
scalar RSUExampleScenario.node[50].veinsmobility 	minSpeed 	0.24707413673447
scalar RSUExampleScenario.node[50].veinsmobility 	maxSpeed 	13.999921419381
scalar RSUExampleScenario.node[50].veinsmobility 	totalDistance 	3409.9553058548
scalar RSUExampleScenario.node[50].veinsmobility 	totalCO2Emission 	708.89926871157
scalar RSUExampleScenario.node[51].veinsmobility 	startTime 	153.1
scalar RSUExampleScenario.node[51].veinsmobility 	totalTime 	287.8
scalar RSUExampleScenario.node[51].veinsmobility 	stopTime 	441
scalar RSUExampleScenario.node[51].veinsmobility 	minSpeed 	0.24981243409333
scalar RSUExampleScenario.node[51].veinsmobility 	maxSpeed 	13.999884611969
scalar RSUExampleScenario.node[51].veinsmobility 	totalDistance 	3413.9590669788
scalar RSUExampleScenario.node[51].veinsmobility 	totalCO2Emission 	705.98390264348
scalar RSUExampleScenario.node[52].veinsmobility 	startTime 	156.1
scalar RSUExampleScenario.node[52].veinsmobility 	totalTime 	288.5
scalar RSUExampleScenario.node[52].veinsmobility 	stopTime 	444.7
scalar RSUExampleScenario.node[52].veinsmobility 	minSpeed 	0.25497100971104
scalar RSUExampleScenario.node[52].veinsmobility 	maxSpeed 	13.999989221995
scalar RSUExampleScenario.node[52].veinsmobility 	totalDistance 	3409.8783578579
scalar RSUExampleScenario.node[52].veinsmobility 	totalCO2Emission 	710.84966437547
scalar RSUExampleScenario.node[53].veinsmobility 	startTime 	159.1
scalar RSUExampleScenario.node[53].veinsmobility 	totalTime 	289.2
scalar RSUExampleScenario.node[53].veinsmobility 	stopTime 	448.4
scalar RSUExampleScenario.node[53].veinsmobility 	minSpeed 	0.25133069569245
scalar RSUExampleScenario.node[53].veinsmobility 	maxSpeed 	13.999894695021
scalar RSUExampleScenario.node[53].veinsmobility 	totalDistance 	3413.8421931105
scalar RSUExampleScenario.node[53].veinsmobility 	totalCO2Emission 	709.95240798784
scalar RSUExampleScenario.node[54].veinsmobility 	startTime 	162.1
scalar RSUExampleScenario.node[54].veinsmobility 	totalTime 	289.9
scalar RSUExampleScenario.node[54].veinsmobility 	stopTime 	452.1
scalar RSUExampleScenario.node[54].veinsmobility 	minSpeed 	0.24862123376993
scalar RSUExampleScenario.node[54].veinsmobility 	maxSpeed 	13.999983343408
scalar RSUExampleScenario.node[54].veinsmobility 	totalDistance 	3410.0016219426
scalar RSUExampleScenario.node[54].veinsmobility 	totalCO2Emission 	708.73918547175
scalar RSUExampleScenario.node[55].veinsmobility 	startTime 	165.1
scalar RSUExampleScenario.node[55].veinsmobility 	totalTime 	290.6
scalar RSUExampleScenario.node[55].veinsmobility 	stopTime 	455.8
scalar RSUExampleScenario.node[55].veinsmobility 	minSpeed 	0.25713344158209
scalar RSUExampleScenario.node[55].veinsmobility 	maxSpeed 	13.99989871246
scalar RSUExampleScenario.node[55].veinsmobility 	totalDistance 	3413.6061630999
scalar RSUExampleScenario.node[55].veinsmobility 	totalCO2Emission 	710.51139483453
scalar RSUExampleScenario.node[56].veinsmobility 	startTime 	168.1
scalar RSUExampleScenario.node[56].veinsmobility 	totalTime 	291.3
scalar RSUExampleScenario.node[56].veinsmobility 	stopTime 	459.5
scalar RSUExampleScenario.node[56].veinsmobility 	minSpeed 	0.25398216490587
scalar RSUExampleScenario.node[56].veinsmobility 	maxSpeed 	13.999833810639
scalar RSUExampleScenario.node[56].veinsmobility 	totalDistance 	3409.6040088013
scalar RSUExampleScenario.node[56].veinsmobility 	totalCO2Emission 	711.27136576382
scalar RSUExampleScenario.node[57].veinsmobility 	startTime 	171.1
scalar RSUExampleScenario.node[57].veinsmobility 	totalTime 	291.9
scalar RSUExampleScenario.node[57].veinsmobility 	stopTime 	463.1
scalar RSUExampleScenario.node[57].veinsmobility 	minSpeed 	0.24706947251991
scalar RSUExampleScenario.node[57].veinsmobility 	maxSpeed 	13.999967729759
scalar RSUExampleScenario.node[57].veinsmobility 	totalDistance 	3413.5171377982
scalar RSUExampleScenario.node[57].veinsmobility 	totalCO2Emission 	713.2418386082
scalar RSUExampleScenario.node[58].veinsmobility 	startTime 	174.1
scalar RSUExampleScenario.node[58].veinsmobility 	totalTime 	292.6
scalar RSUExampleScenario.node[58].veinsmobility 	stopTime 	466.8
scalar RSUExampleScenario.node[58].veinsmobility 	minSpeed 	0.25590580498078
scalar RSUExampleScenario.node[58].veinsmobility 	maxSpeed 	13.99992943519
scalar RSUExampleScenario.node[58].veinsmobility 	totalDistance 	3409.7580852313
scalar RSUExampleScenario.node[58].veinsmobility 	totalCO2Emission 	713.51533008217
scalar RSUExampleScenario.node[59].veinsmobility 	startTime 	177.1
scalar RSUExampleScenario.node[59].veinsmobility 	totalTime 	293.3
scalar RSUExampleScenario.node[59].veinsmobility 	stopTime 	470.5
scalar RSUExampleScenario.node[59].veinsmobility 	minSpeed 	0.25615884874156
scalar RSUExampleScenario.node[59].veinsmobility 	maxSpeed 	13.999858629417
scalar RSUExampleScenario.node[59].veinsmobility 	totalDistance 	3413.978273839
scalar RSUExampleScenario.node[59].veinsmobility 	totalCO2Emission 	714.59367642913
scalar RSUExampleScenario.node[60].veinsmobility 	startTime 	180.1
scalar RSUExampleScenario.node[60].veinsmobility 	totalTime 	294
scalar RSUExampleScenario.node[60].veinsmobility 	stopTime 	474.2
scalar RSUExampleScenario.node[60].veinsmobility 	minSpeed 	0.2592505586585
scalar RSUExampleScenario.node[60].veinsmobility 	maxSpeed 	13.999826873399
scalar RSUExampleScenario.node[60].veinsmobility 	totalDistance 	3409.6784681756
scalar RSUExampleScenario.node[60].veinsmobility 	totalCO2Emission 	714.57801197788
scalar RSUExampleScenario.node[61].veinsmobility 	startTime 	183.1
scalar RSUExampleScenario.node[61].veinsmobility 	totalTime 	294.7
scalar RSUExampleScenario.node[61].veinsmobility 	stopTime 	477.9
scalar RSUExampleScenario.node[61].veinsmobility 	minSpeed 	0.25017350404267
scalar RSUExampleScenario.node[61].veinsmobility 	maxSpeed 	13.999961903989
scalar RSUExampleScenario.node[61].veinsmobility 	totalDistance 	3413.9807476547
scalar RSUExampleScenario.node[61].veinsmobility 	totalCO2Emission 	712.86673628452
scalar RSUExampleScenario.node[62].veinsmobility 	startTime 	186.1
scalar RSUExampleScenario.node[62].veinsmobility 	totalTime 	295.4
scalar RSUExampleScenario.node[62].veinsmobility 	stopTime 	481.6
scalar RSUExampleScenario.node[62].veinsmobility 	minSpeed 	0.25769416761771
scalar RSUExampleScenario.node[62].veinsmobility 	maxSpeed 	13.999984361047
scalar RSUExampleScenario.node[62].veinsmobility 	totalDistance 	3410.0472650263
scalar RSUExampleScenario.node[62].veinsmobility 	totalCO2Emission 	716.37502877131
scalar RSUExampleScenario.node[63].veinsmobility 	startTime 	189.1
scalar RSUExampleScenario.node[63].veinsmobility 	totalTime 	296.1
scalar RSUExampleScenario.node[63].veinsmobility 	stopTime 	485.3
scalar RSUExampleScenario.node[63].veinsmobility 	minSpeed 	0.25875563440518
scalar RSUExampleScenario.node[63].veinsmobility 	maxSpeed 	13.999974132618
scalar RSUExampleScenario.node[63].veinsmobility 	totalDistance 	3414.2554258512
scalar RSUExampleScenario.node[63].veinsmobility 	totalCO2Emission 	717.02749276273
scalar RSUExampleScenario.node[64].veinsmobility 	startTime 	192.1
scalar RSUExampleScenario.node[64].veinsmobility 	totalTime 	296.8
scalar RSUExampleScenario.node[64].veinsmobility 	stopTime 	489
scalar RSUExampleScenario.node[64].veinsmobility 	minSpeed 	0.25624854387646
scalar RSUExampleScenario.node[64].veinsmobility 	maxSpeed 	13.999939060591
scalar RSUExampleScenario.node[64].veinsmobility 	totalDistance 	3409.8132057979
scalar RSUExampleScenario.node[64].veinsmobility 	totalCO2Emission 	717.95072934501
scalar RSUExampleScenario.node[65].veinsmobility 	startTime 	195.1
scalar RSUExampleScenario.node[65].veinsmobility 	totalTime 	297.5
scalar RSUExampleScenario.node[65].veinsmobility 	stopTime 	492.7
scalar RSUExampleScenario.node[65].veinsmobility 	minSpeed 	0.24712809593207
scalar RSUExampleScenario.node[65].veinsmobility 	maxSpeed 	13.999993862561
scalar RSUExampleScenario.node[65].veinsmobility 	totalDistance 	3413.6122009411
scalar RSUExampleScenario.node[65].veinsmobility 	totalCO2Emission 	719.93796585715
scalar RSUExampleScenario.node[66].veinsmobility 	startTime 	198.1
scalar RSUExampleScenario.node[66].veinsmobility 	totalTime 	298.2
scalar RSUExampleScenario.node[66].veinsmobility 	stopTime 	496.4
scalar RSUExampleScenario.node[66].veinsmobility 	minSpeed 	0.25788490839652
scalar RSUExampleScenario.node[66].veinsmobility 	maxSpeed 	13.999999539291
scalar RSUExampleScenario.node[66].veinsmobility 	totalDistance 	3409.7396604683
scalar RSUExampleScenario.node[66].veinsmobility 	totalCO2Emission 	720.36127460332
scalar RSUExampleScenario.node[67].veinsmobility 	startTime 	201.1
scalar RSUExampleScenario.node[67].veinsmobility 	totalTime 	298.8
scalar RSUExampleScenario.node[67].veinsmobility 	stopTime 	500
scalar RSUExampleScenario.node[67].veinsmobility 	minSpeed 	0.25618360497686
scalar RSUExampleScenario.node[67].veinsmobility 	maxSpeed 	13.999886947689
scalar RSUExampleScenario.node[67].veinsmobility 	totalDistance 	3413.8585733461
scalar RSUExampleScenario.node[67].veinsmobility 	totalCO2Emission 	722.71455320911
scalar RSUExampleScenario.node[68].veinsmobility 	startTime 	204.1
scalar RSUExampleScenario.node[68].veinsmobility 	totalTime 	299.5
scalar RSUExampleScenario.node[68].veinsmobility 	stopTime 	503.7
scalar RSUExampleScenario.node[68].veinsmobility 	minSpeed 	0.25545551720751
scalar RSUExampleScenario.node[68].veinsmobility 	maxSpeed 	13.999966264546
scalar RSUExampleScenario.node[68].veinsmobility 	totalDistance 	3410.0619920177
scalar RSUExampleScenario.node[68].veinsmobility 	totalCO2Emission 	723.63021515488
scalar RSUExampleScenario.node[69].veinsmobility 	startTime 	207.1
scalar RSUExampleScenario.node[69].veinsmobility 	totalTime 	300.3
scalar RSUExampleScenario.node[69].veinsmobility 	stopTime 	507.5
scalar RSUExampleScenario.node[69].veinsmobility 	minSpeed 	0.25486411859607
scalar RSUExampleScenario.node[69].veinsmobility 	maxSpeed 	13.999934502626
scalar RSUExampleScenario.node[69].veinsmobility 	totalDistance 	3414.1855642131
scalar RSUExampleScenario.node[69].veinsmobility 	totalCO2Emission 	722.04977887481
scalar RSUExampleScenario.node[70].veinsmobility 	startTime 	210.1
scalar RSUExampleScenario.node[70].veinsmobility 	totalTime 	301
scalar RSUExampleScenario.node[70].veinsmobility 	stopTime 	511.2
scalar RSUExampleScenario.node[70].veinsmobility 	minSpeed 	0.25114812553185
scalar RSUExampleScenario.node[70].veinsmobility 	maxSpeed 	13.999765720661
scalar RSUExampleScenario.node[70].veinsmobility 	totalDistance 	3410.1741438985
scalar RSUExampleScenario.node[70].veinsmobility 	totalCO2Emission 	718.98670896216
scalar RSUExampleScenario.node[71].veinsmobility 	startTime 	213.1
scalar RSUExampleScenario.node[71].veinsmobility 	totalTime 	301.7
scalar RSUExampleScenario.node[71].veinsmobility 	stopTime 	514.9
scalar RSUExampleScenario.node[71].veinsmobility 	minSpeed 	0.25083372357395
scalar RSUExampleScenario.node[71].veinsmobility 	maxSpeed 	13.999860833986
scalar RSUExampleScenario.node[71].veinsmobility 	totalDistance 	3414.0746504696
scalar RSUExampleScenario.node[71].veinsmobility 	totalCO2Emission 	724.07397019703
scalar RSUExampleScenario.node[72].veinsmobility 	startTime 	216.1
scalar RSUExampleScenario.node[72].veinsmobility 	totalTime 	302.4
scalar RSUExampleScenario.node[72].veinsmobility 	stopTime 	518.6
scalar RSUExampleScenario.node[72].veinsmobility 	minSpeed 	0.25281117695174
scalar RSUExampleScenario.node[72].veinsmobility 	maxSpeed 	13.999910196466
scalar RSUExampleScenario.node[72].veinsmobility 	totalDistance 	3409.5157943368
scalar RSUExampleScenario.node[72].veinsmobility 	totalCO2Emission 	726.08845664344
scalar RSUExampleScenario.node[73].veinsmobility 	startTime 	219.1
scalar RSUExampleScenario.node[73].veinsmobility 	totalTime 	303
scalar RSUExampleScenario.node[73].veinsmobility 	stopTime 	522.2
scalar RSUExampleScenario.node[73].veinsmobility 	minSpeed 	0.25182273973222
scalar RSUExampleScenario.node[73].veinsmobility 	maxSpeed 	13.999971545977
scalar RSUExampleScenario.node[73].veinsmobility 	totalDistance 	3413.9296019086
scalar RSUExampleScenario.node[73].veinsmobility 	totalCO2Emission 	725.22960575844
scalar RSUExampleScenario.node[74].veinsmobility 	startTime 	222.1
scalar RSUExampleScenario.node[74].veinsmobility 	totalTime 	303.7
scalar RSUExampleScenario.node[74].veinsmobility 	stopTime 	525.9
scalar RSUExampleScenario.node[74].veinsmobility 	minSpeed 	0.24855280093406
scalar RSUExampleScenario.node[74].veinsmobility 	maxSpeed 	13.999770134368
scalar RSUExampleScenario.node[74].veinsmobility 	totalDistance 	3409.9810568828
scalar RSUExampleScenario.node[74].veinsmobility 	totalCO2Emission 	722.80443567895
scalar RSUExampleScenario.node[75].veinsmobility 	startTime 	225.1
scalar RSUExampleScenario.node[75].veinsmobility 	totalTime 	304.5
scalar RSUExampleScenario.node[75].veinsmobility 	stopTime 	529.7
scalar RSUExampleScenario.node[75].veinsmobility 	minSpeed 	0.25075108755636
scalar RSUExampleScenario.node[75].veinsmobility 	maxSpeed 	13.999962794292
scalar RSUExampleScenario.node[75].veinsmobility 	totalDistance 	3414.2679548834
scalar RSUExampleScenario.node[75].veinsmobility 	totalCO2Emission 	725.59072284449
scalar RSUExampleScenario.node[76].veinsmobility 	startTime 	228.1
scalar RSUExampleScenario.node[76].veinsmobility 	totalTime 	305.2
scalar RSUExampleScenario.node[76].veinsmobility 	stopTime 	533.4
scalar RSUExampleScenario.node[76].veinsmobility 	minSpeed 	0.25720943880477
scalar RSUExampleScenario.node[76].veinsmobility 	maxSpeed 	13.999945953186
scalar RSUExampleScenario.node[76].veinsmobility 	totalDistance 	3409.8563988702
scalar RSUExampleScenario.node[76].veinsmobility 	totalCO2Emission 	726.27072074087
scalar RSUExampleScenario.node[77].veinsmobility 	startTime 	231.1
scalar RSUExampleScenario.node[77].veinsmobility 	totalTime 	305.9
scalar RSUExampleScenario.node[77].veinsmobility 	stopTime 	537.1
scalar RSUExampleScenario.node[77].veinsmobility 	minSpeed 	0.25595621672831
scalar RSUExampleScenario.node[77].veinsmobility 	maxSpeed 	13.999739632171
scalar RSUExampleScenario.node[77].veinsmobility 	totalDistance 	3414.2555187533
scalar RSUExampleScenario.node[77].veinsmobility 	totalCO2Emission 	732.36840404268
scalar RSUExampleScenario.node[78].veinsmobility 	startTime 	234.1
scalar RSUExampleScenario.node[78].veinsmobility 	totalTime 	306.7
scalar RSUExampleScenario.node[78].veinsmobility 	stopTime 	540.9
scalar RSUExampleScenario.node[78].veinsmobility 	minSpeed 	0.24738605419337
scalar RSUExampleScenario.node[78].veinsmobility 	maxSpeed 	13.999823943488
scalar RSUExampleScenario.node[78].veinsmobility 	totalDistance 	3410.1893449703
scalar RSUExampleScenario.node[78].veinsmobility 	totalCO2Emission 	731.81403825411
scalar RSUExampleScenario.node[79].veinsmobility 	startTime 	237.1
scalar RSUExampleScenario.node[79].veinsmobility 	totalTime 	307.4
scalar RSUExampleScenario.node[79].veinsmobility 	stopTime 	544.6
scalar RSUExampleScenario.node[79].veinsmobility 	minSpeed 	0.24902741511911
scalar RSUExampleScenario.node[79].veinsmobility 	maxSpeed 	13.999844621334
scalar RSUExampleScenario.node[79].veinsmobility 	totalDistance 	3413.7674462835
scalar RSUExampleScenario.node[79].veinsmobility 	totalCO2Emission 	724.76901520157
scalar RSUExampleScenario.node[80].veinsmobility 	startTime 	240.1
scalar RSUExampleScenario.node[80].veinsmobility 	totalTime 	308.1
scalar RSUExampleScenario.node[80].veinsmobility 	stopTime 	548.3
scalar RSUExampleScenario.node[80].veinsmobility 	minSpeed 	0.25927609985461
scalar RSUExampleScenario.node[80].veinsmobility 	maxSpeed 	13.999990500575
scalar RSUExampleScenario.node[80].veinsmobility 	totalDistance 	3409.8526231415
scalar RSUExampleScenario.node[80].veinsmobility 	totalCO2Emission 	730.27206875934
scalar RSUExampleScenario.node[81].veinsmobility 	startTime 	243.1
scalar RSUExampleScenario.node[81].veinsmobility 	totalTime 	308.8
scalar RSUExampleScenario.node[81].veinsmobility 	stopTime 	552
scalar RSUExampleScenario.node[81].veinsmobility 	minSpeed 	0.25473284785822
scalar RSUExampleScenario.node[81].veinsmobility 	maxSpeed 	13.999948036803
scalar RSUExampleScenario.node[81].veinsmobility 	totalDistance 	3414.0032422352
scalar RSUExampleScenario.node[81].veinsmobility 	totalCO2Emission 	731.31874838387
scalar RSUExampleScenario.node[82].veinsmobility 	startTime 	246.1
scalar RSUExampleScenario.node[82].veinsmobility 	totalTime 	309.5
scalar RSUExampleScenario.node[82].veinsmobility 	stopTime 	555.7
scalar RSUExampleScenario.node[82].veinsmobility 	minSpeed 	0.25579232082702
scalar RSUExampleScenario.node[82].veinsmobility 	maxSpeed 	13.999902703839
scalar RSUExampleScenario.node[82].veinsmobility 	totalDistance 	3409.7675412337
scalar RSUExampleScenario.node[82].veinsmobility 	totalCO2Emission 	730.01913487062
scalar RSUExampleScenario.node[83].veinsmobility 	startTime 	249.1
scalar RSUExampleScenario.node[83].veinsmobility 	totalTime 	310.3
scalar RSUExampleScenario.node[83].veinsmobility 	stopTime 	559.5
scalar RSUExampleScenario.node[83].veinsmobility 	minSpeed 	0.25446812969982
scalar RSUExampleScenario.node[83].veinsmobility 	maxSpeed 	13.999783350581
scalar RSUExampleScenario.node[83].veinsmobility 	totalDistance 	3414.0191465737
scalar RSUExampleScenario.node[83].veinsmobility 	totalCO2Emission 	728.32505047896
scalar RSUExampleScenario.node[84].veinsmobility 	startTime 	252.1
scalar RSUExampleScenario.node[84].veinsmobility 	totalTime 	311
scalar RSUExampleScenario.node[84].veinsmobility 	stopTime 	563.2
scalar RSUExampleScenario.node[84].veinsmobility 	minSpeed 	0.25436725478549
scalar RSUExampleScenario.node[84].veinsmobility 	maxSpeed 	13.999917994256
scalar RSUExampleScenario.node[84].veinsmobility 	totalDistance 	3409.88410114
scalar RSUExampleScenario.node[84].veinsmobility 	totalCO2Emission 	733.70933602387
scalar RSUExampleScenario.node[85].veinsmobility 	startTime 	255.1
scalar RSUExampleScenario.node[85].veinsmobility 	totalTime 	311.7
scalar RSUExampleScenario.node[85].veinsmobility 	stopTime 	566.9
scalar RSUExampleScenario.node[85].veinsmobility 	minSpeed 	0.25495233495533
scalar RSUExampleScenario.node[85].veinsmobility 	maxSpeed 	13.999901417692
scalar RSUExampleScenario.node[85].veinsmobility 	totalDistance 	3410.0218832036
scalar RSUExampleScenario.node[85].veinsmobility 	totalCO2Emission 	732.12777186913
scalar RSUExampleScenario.node[86].veinsmobility 	startTime 	258.1
scalar RSUExampleScenario.node[86].veinsmobility 	totalTime 	312.3
scalar RSUExampleScenario.node[86].veinsmobility 	stopTime 	570.5
scalar RSUExampleScenario.node[86].veinsmobility 	minSpeed 	0.25887593153701
scalar RSUExampleScenario.node[86].veinsmobility 	maxSpeed 	13.999906315596
scalar RSUExampleScenario.node[86].veinsmobility 	totalDistance 	3414.0061655629
scalar RSUExampleScenario.node[86].veinsmobility 	totalCO2Emission 	732.19415728965
scalar RSUExampleScenario.node[87].veinsmobility 	startTime 	261.1
scalar RSUExampleScenario.node[87].veinsmobility 	totalTime 	313
scalar RSUExampleScenario.node[87].veinsmobility 	stopTime 	574.2
scalar RSUExampleScenario.node[87].veinsmobility 	minSpeed 	0.25886734430725
scalar RSUExampleScenario.node[87].veinsmobility 	maxSpeed 	13.999982385002
scalar RSUExampleScenario.node[87].veinsmobility 	totalDistance 	3409.8033396411
scalar RSUExampleScenario.node[87].veinsmobility 	totalCO2Emission 	735.42864838754
scalar RSUExampleScenario.node[88].veinsmobility 	startTime 	264.1
scalar RSUExampleScenario.node[88].veinsmobility 	totalTime 	313.6
scalar RSUExampleScenario.node[88].veinsmobility 	stopTime 	577.8
scalar RSUExampleScenario.node[88].veinsmobility 	minSpeed 	0.25824064529664
scalar RSUExampleScenario.node[88].veinsmobility 	maxSpeed 	13.999997720881
scalar RSUExampleScenario.node[88].veinsmobility 	totalDistance 	3413.7530396509
scalar RSUExampleScenario.node[88].veinsmobility 	totalCO2Emission 	736.66299860702
scalar RSUExampleScenario.node[89].veinsmobility 	startTime 	267.1
scalar RSUExampleScenario.node[89].veinsmobility 	totalTime 	314.3
scalar RSUExampleScenario.node[89].veinsmobility 	stopTime 	581.5
scalar RSUExampleScenario.node[89].veinsmobility 	minSpeed 	0.25211922497791
scalar RSUExampleScenario.node[89].veinsmobility 	maxSpeed 	13.999882955553
scalar RSUExampleScenario.node[89].veinsmobility 	totalDistance 	3409.8865888605
scalar RSUExampleScenario.node[89].veinsmobility 	totalCO2Emission 	736.8623453846
scalar RSUExampleScenario.node[90].veinsmobility 	startTime 	270.1
scalar RSUExampleScenario.node[90].veinsmobility 	totalTime 	315
scalar RSUExampleScenario.node[90].veinsmobility 	stopTime 	585.2
scalar RSUExampleScenario.node[90].veinsmobility 	minSpeed 	0.25067204632494
scalar RSUExampleScenario.node[90].veinsmobility 	maxSpeed 	13.999991873289
scalar RSUExampleScenario.node[90].veinsmobility 	totalDistance 	3413.9944958269
scalar RSUExampleScenario.node[90].veinsmobility 	totalCO2Emission 	737.53144446257
scalar RSUExampleScenario.node[91].veinsmobility 	startTime 	273.1
scalar RSUExampleScenario.node[91].veinsmobility 	totalTime 	315.6
scalar RSUExampleScenario.node[91].veinsmobility 	stopTime 	588.8
scalar RSUExampleScenario.node[91].veinsmobility 	minSpeed 	0.25584436296253
scalar RSUExampleScenario.node[91].veinsmobility 	maxSpeed 	13.999923363826
scalar RSUExampleScenario.node[91].veinsmobility 	totalDistance 	3409.5439999317
scalar RSUExampleScenario.node[91].veinsmobility 	totalCO2Emission 	741.1441177394
scalar RSUExampleScenario.node[92].veinsmobility 	startTime 	276.1
scalar RSUExampleScenario.node[92].veinsmobility 	totalTime 	316.3
scalar RSUExampleScenario.node[92].veinsmobility 	stopTime 	592.5
scalar RSUExampleScenario.node[92].veinsmobility 	minSpeed 	0.25984730546526
scalar RSUExampleScenario.node[92].veinsmobility 	maxSpeed 	13.999958668826
scalar RSUExampleScenario.node[92].veinsmobility 	totalDistance 	3414.0841788286
scalar RSUExampleScenario.node[92].veinsmobility 	totalCO2Emission 	742.64215009335
scalar RSUExampleScenario.node[93].veinsmobility 	startTime 	279.1
scalar RSUExampleScenario.node[93].veinsmobility 	totalTime 	317.1
scalar RSUExampleScenario.node[93].veinsmobility 	stopTime 	596.3
scalar RSUExampleScenario.node[93].veinsmobility 	minSpeed 	0.25127451024833
scalar RSUExampleScenario.node[93].veinsmobility 	maxSpeed 	13.999900799226
scalar RSUExampleScenario.node[93].veinsmobility 	totalDistance 	3410.1971727343
scalar RSUExampleScenario.node[93].veinsmobility 	totalCO2Emission 	740.26977707402
scalar RSUExampleScenario.node[94].veinsmobility 	startTime 	282.1
scalar RSUExampleScenario.node[94].veinsmobility 	totalTime 	317.9
scalar RSUExampleScenario.node[94].veinsmobility 	stopTime 	600.1
scalar RSUExampleScenario.node[94].veinsmobility 	minSpeed 	0.25010562469321
scalar RSUExampleScenario.node[94].veinsmobility 	maxSpeed 	13.99997100197
scalar RSUExampleScenario.node[94].veinsmobility 	totalDistance 	3414.3081179723
scalar RSUExampleScenario.node[94].veinsmobility 	totalCO2Emission 	736.32821535829
scalar RSUExampleScenario.node[95].veinsmobility 	startTime 	285.1
scalar RSUExampleScenario.node[95].veinsmobility 	totalTime 	318.6
scalar RSUExampleScenario.node[95].veinsmobility 	stopTime 	603.8
scalar RSUExampleScenario.node[95].veinsmobility 	minSpeed 	0.2578954993668
scalar RSUExampleScenario.node[95].veinsmobility 	maxSpeed 	13.999958159507
scalar RSUExampleScenario.node[95].veinsmobility 	totalDistance 	3409.9637154853
scalar RSUExampleScenario.node[95].veinsmobility 	totalCO2Emission 	745.17520972142
scalar RSUExampleScenario.node[96].veinsmobility 	startTime 	288.1
scalar RSUExampleScenario.node[96].veinsmobility 	totalTime 	319.3
scalar RSUExampleScenario.node[96].veinsmobility 	stopTime 	607.5
scalar RSUExampleScenario.node[96].veinsmobility 	minSpeed 	0.25093860707711
scalar RSUExampleScenario.node[96].veinsmobility 	maxSpeed 	13.999973170792
scalar RSUExampleScenario.node[96].veinsmobility 	totalDistance 	3413.82690423
scalar RSUExampleScenario.node[96].veinsmobility 	totalCO2Emission 	743.56289746125
scalar RSUExampleScenario.node[97].veinsmobility 	startTime 	291.1
scalar RSUExampleScenario.node[97].veinsmobility 	totalTime 	320
scalar RSUExampleScenario.node[97].veinsmobility 	stopTime 	611.2
scalar RSUExampleScenario.node[97].veinsmobility 	minSpeed 	0.25140734476037
scalar RSUExampleScenario.node[97].veinsmobility 	maxSpeed 	13.999967365605
scalar RSUExampleScenario.node[97].veinsmobility 	totalDistance 	3409.497019806
scalar RSUExampleScenario.node[97].veinsmobility 	totalCO2Emission 	741.65836345334
scalar RSUExampleScenario.node[98].veinsmobility 	startTime 	294.1
scalar RSUExampleScenario.node[98].veinsmobility 	totalTime 	320.7
scalar RSUExampleScenario.node[98].veinsmobility 	stopTime 	614.9
scalar RSUExampleScenario.node[98].veinsmobility 	minSpeed 	0.25385103736585
scalar RSUExampleScenario.node[98].veinsmobility 	maxSpeed 	13.999961924178
scalar RSUExampleScenario.node[98].veinsmobility 	totalDistance 	3413.8634311967
scalar RSUExampleScenario.node[98].veinsmobility 	totalCO2Emission 	738.40125296699
scalar RSUExampleScenario.node[99].veinsmobility 	startTime 	297.1
scalar RSUExampleScenario.node[99].veinsmobility 	totalTime 	321.5
scalar RSUExampleScenario.node[99].veinsmobility 	stopTime 	618.7
scalar RSUExampleScenario.node[99].veinsmobility 	minSpeed 	0.25634007882955
scalar RSUExampleScenario.node[99].veinsmobility 	maxSpeed 	13.999940712133
scalar RSUExampleScenario.node[99].veinsmobility 	totalDistance 	3409.9595618905
scalar RSUExampleScenario.node[99].veinsmobility 	totalCO2Emission 	742.76301656004
scalar RSUExampleScenario.node[100].veinsmobility 	startTime 	300.1
scalar RSUExampleScenario.node[100].veinsmobility 	totalTime 	322.2
scalar RSUExampleScenario.node[100].veinsmobility 	stopTime 	622.4
scalar RSUExampleScenario.node[100].veinsmobility 	minSpeed 	0.25970886414824
scalar RSUExampleScenario.node[100].veinsmobility 	maxSpeed 	13.999816154537
scalar RSUExampleScenario.node[100].veinsmobility 	totalDistance 	3414.0399066709
scalar RSUExampleScenario.node[100].veinsmobility 	totalCO2Emission 	745.6585696144
scalar RSUExampleScenario.node[101].veinsmobility 	startTime 	303.1
scalar RSUExampleScenario.node[101].veinsmobility 	totalTime 	323
scalar RSUExampleScenario.node[101].veinsmobility 	stopTime 	626.2
scalar RSUExampleScenario.node[101].veinsmobility 	minSpeed 	0.25511572745768
scalar RSUExampleScenario.node[101].veinsmobility 	maxSpeed 	13.99999400821
scalar RSUExampleScenario.node[101].veinsmobility 	totalDistance 	3410.2172209154
scalar RSUExampleScenario.node[101].veinsmobility 	totalCO2Emission 	744.74605290487
scalar RSUExampleScenario.node[102].veinsmobility 	startTime 	306.1
scalar RSUExampleScenario.node[102].veinsmobility 	totalTime 	323.7
scalar RSUExampleScenario.node[102].veinsmobility 	stopTime 	629.9
scalar RSUExampleScenario.node[102].veinsmobility 	minSpeed 	0.25699238489638
scalar RSUExampleScenario.node[102].veinsmobility 	maxSpeed 	13.999925803971
scalar RSUExampleScenario.node[102].veinsmobility 	totalDistance 	3414.2911389863
scalar RSUExampleScenario.node[102].veinsmobility 	totalCO2Emission 	744.48922191812
scalar RSUExampleScenario.node[103].veinsmobility 	startTime 	309.1
scalar RSUExampleScenario.node[103].veinsmobility 	totalTime 	324.5
scalar RSUExampleScenario.node[103].veinsmobility 	stopTime 	633.7
scalar RSUExampleScenario.node[103].veinsmobility 	minSpeed 	0.25494249349297
scalar RSUExampleScenario.node[103].veinsmobility 	maxSpeed 	13.999963180269
scalar RSUExampleScenario.node[103].veinsmobility 	totalDistance 	3410.125410121
scalar RSUExampleScenario.node[103].veinsmobility 	totalCO2Emission 	747.37509259076
scalar RSUExampleScenario.node[104].veinsmobility 	startTime 	312.1
scalar RSUExampleScenario.node[104].veinsmobility 	totalTime 	325.2
scalar RSUExampleScenario.node[104].veinsmobility 	stopTime 	637.4
scalar RSUExampleScenario.node[104].veinsmobility 	minSpeed 	0.24947849557153
scalar RSUExampleScenario.node[104].veinsmobility 	maxSpeed 	13.999783189707
scalar RSUExampleScenario.node[104].veinsmobility 	totalDistance 	3414.1750994644
scalar RSUExampleScenario.node[104].veinsmobility 	totalCO2Emission 	747.35063752685
scalar RSUExampleScenario.node[105].veinsmobility 	startTime 	315.1
scalar RSUExampleScenario.node[105].veinsmobility 	totalTime 	325.9
scalar RSUExampleScenario.node[105].veinsmobility 	stopTime 	641.1
scalar RSUExampleScenario.node[105].veinsmobility 	minSpeed 	0.25333158084517
scalar RSUExampleScenario.node[105].veinsmobility 	maxSpeed 	13.999835606227
scalar RSUExampleScenario.node[105].veinsmobility 	totalDistance 	3410.0993013203
scalar RSUExampleScenario.node[105].veinsmobility 	totalCO2Emission 	742.81893151238
scalar RSUExampleScenario.node[106].veinsmobility 	startTime 	318.1
scalar RSUExampleScenario.node[106].veinsmobility 	totalTime 	326.6
scalar RSUExampleScenario.node[106].veinsmobility 	stopTime 	644.8
scalar RSUExampleScenario.node[106].veinsmobility 	minSpeed 	0.24986188272573
scalar RSUExampleScenario.node[106].veinsmobility 	maxSpeed 	13.999993247546
scalar RSUExampleScenario.node[106].veinsmobility 	totalDistance 	3413.6673874401
scalar RSUExampleScenario.node[106].veinsmobility 	totalCO2Emission 	752.34608785528
scalar RSUExampleScenario.node[107].veinsmobility 	startTime 	321.1
scalar RSUExampleScenario.node[107].veinsmobility 	totalTime 	327.3
scalar RSUExampleScenario.node[107].veinsmobility 	stopTime 	648.5
scalar RSUExampleScenario.node[107].veinsmobility 	minSpeed 	0.2554283743205
scalar RSUExampleScenario.node[107].veinsmobility 	maxSpeed 	13.999997421622
scalar RSUExampleScenario.node[107].veinsmobility 	totalDistance 	3409.7805852119
scalar RSUExampleScenario.node[107].veinsmobility 	totalCO2Emission 	751.72380118181
scalar RSUExampleScenario.node[108].veinsmobility 	startTime 	324.1
scalar RSUExampleScenario.node[108].veinsmobility 	totalTime 	328
scalar RSUExampleScenario.node[108].veinsmobility 	stopTime 	652.2
scalar RSUExampleScenario.node[108].veinsmobility 	minSpeed 	0.24996585929114
scalar RSUExampleScenario.node[108].veinsmobility 	maxSpeed 	13.999932213398
scalar RSUExampleScenario.node[108].veinsmobility 	totalDistance 	3413.6129260544
scalar RSUExampleScenario.node[108].veinsmobility 	totalCO2Emission 	750.16669274685
scalar RSUExampleScenario.node[109].veinsmobility 	startTime 	327.1
scalar RSUExampleScenario.node[109].veinsmobility 	totalTime 	328.8
scalar RSUExampleScenario.node[109].veinsmobility 	stopTime 	656
scalar RSUExampleScenario.node[109].veinsmobility 	minSpeed 	0.25429987459746
scalar RSUExampleScenario.node[109].veinsmobility 	maxSpeed 	13.999856954447
scalar RSUExampleScenario.node[109].veinsmobility 	totalDistance 	3410.1731430149
scalar RSUExampleScenario.node[109].veinsmobility 	totalCO2Emission 	752.41205884228
scalar RSUExampleScenario.node[110].veinsmobility 	startTime 	330.1
scalar RSUExampleScenario.node[110].veinsmobility 	totalTime 	329.6
scalar RSUExampleScenario.node[110].veinsmobility 	stopTime 	659.8
scalar RSUExampleScenario.node[110].veinsmobility 	minSpeed 	0.25354720678576
scalar RSUExampleScenario.node[110].veinsmobility 	maxSpeed 	13.999994935622
scalar RSUExampleScenario.node[110].veinsmobility 	totalDistance 	3414.2380505347
scalar RSUExampleScenario.node[110].veinsmobility 	totalCO2Emission 	753.35140026345
scalar RSUExampleScenario.node[111].veinsmobility 	startTime 	333.1
scalar RSUExampleScenario.node[111].veinsmobility 	totalTime 	330.3
scalar RSUExampleScenario.node[111].veinsmobility 	stopTime 	663.5
scalar RSUExampleScenario.node[111].veinsmobility 	minSpeed 	0.25709268943476
scalar RSUExampleScenario.node[111].veinsmobility 	maxSpeed 	13.999957396602
scalar RSUExampleScenario.node[111].veinsmobility 	totalDistance 	3409.9419533656
scalar RSUExampleScenario.node[111].veinsmobility 	totalCO2Emission 	753.38734104126
scalar RSUExampleScenario.node[112].veinsmobility 	startTime 	336.1
scalar RSUExampleScenario.node[112].veinsmobility 	totalTime 	330.9
scalar RSUExampleScenario.node[112].veinsmobility 	stopTime 	667.1
scalar RSUExampleScenario.node[112].veinsmobility 	minSpeed 	0.2552635049494
scalar RSUExampleScenario.node[112].veinsmobility 	maxSpeed 	13.999887542757
scalar RSUExampleScenario.node[112].veinsmobility 	totalDistance 	3413.6632451976
scalar RSUExampleScenario.node[112].veinsmobility 	totalCO2Emission 	756.61505356302
scalar RSUExampleScenario.node[113].veinsmobility 	startTime 	339.1
scalar RSUExampleScenario.node[113].veinsmobility 	totalTime 	331.6
scalar RSUExampleScenario.node[113].veinsmobility 	stopTime 	670.8
scalar RSUExampleScenario.node[113].veinsmobility 	minSpeed 	0.25460195125989
scalar RSUExampleScenario.node[113].veinsmobility 	maxSpeed 	13.99987679384
scalar RSUExampleScenario.node[113].veinsmobility 	totalDistance 	3409.8645285756
scalar RSUExampleScenario.node[113].veinsmobility 	totalCO2Emission 	751.35412693145
scalar RSUExampleScenario.node[114].veinsmobility 	startTime 	342.1
scalar RSUExampleScenario.node[114].veinsmobility 	totalTime 	332.3
scalar RSUExampleScenario.node[114].veinsmobility 	stopTime 	674.5
scalar RSUExampleScenario.node[114].veinsmobility 	minSpeed 	0.2511392104181
scalar RSUExampleScenario.node[114].veinsmobility 	maxSpeed 	13.999987938209
scalar RSUExampleScenario.node[114].veinsmobility 	totalDistance 	3413.6738513827
scalar RSUExampleScenario.node[114].veinsmobility 	totalCO2Emission 	753.75418861154
scalar RSUExampleScenario.node[115].veinsmobility 	startTime 	345.1
scalar RSUExampleScenario.node[115].veinsmobility 	totalTime 	333
scalar RSUExampleScenario.node[115].veinsmobility 	stopTime 	678.2
scalar RSUExampleScenario.node[115].veinsmobility 	minSpeed 	0.24781622639135
scalar RSUExampleScenario.node[115].veinsmobility 	maxSpeed 	13.999965853386
scalar RSUExampleScenario.node[115].veinsmobility 	totalDistance 	3409.8668036597
scalar RSUExampleScenario.node[115].veinsmobility 	totalCO2Emission 	755.13656865933
scalar RSUExampleScenario.node[116].veinsmobility 	startTime 	348.1
scalar RSUExampleScenario.node[116].veinsmobility 	totalTime 	333.7
scalar RSUExampleScenario.node[116].veinsmobility 	stopTime 	681.9
scalar RSUExampleScenario.node[116].veinsmobility 	minSpeed 	0.24929745487636
scalar RSUExampleScenario.node[116].veinsmobility 	maxSpeed 	13.999913416919
scalar RSUExampleScenario.node[116].veinsmobility 	totalDistance 	3414.3617738199
scalar RSUExampleScenario.node[116].veinsmobility 	totalCO2Emission 	755.26732076641
scalar RSUExampleScenario.node[117].veinsmobility 	startTime 	351.1
scalar RSUExampleScenario.node[117].veinsmobility 	totalTime 	334.4
scalar RSUExampleScenario.node[117].veinsmobility 	stopTime 	685.6
scalar RSUExampleScenario.node[117].veinsmobility 	minSpeed 	0.24930095531116
scalar RSUExampleScenario.node[117].veinsmobility 	maxSpeed 	13.999873085709
scalar RSUExampleScenario.node[117].veinsmobility 	totalDistance 	3409.8689117903
scalar RSUExampleScenario.node[117].veinsmobility 	totalCO2Emission 	756.33091416729
scalar RSUExampleScenario.node[118].veinsmobility 	startTime 	354.1
scalar RSUExampleScenario.node[118].veinsmobility 	totalTime 	335.1
scalar RSUExampleScenario.node[118].veinsmobility 	stopTime 	689.3
scalar RSUExampleScenario.node[118].veinsmobility 	minSpeed 	0.2506901303404
scalar RSUExampleScenario.node[118].veinsmobility 	maxSpeed 	13.999796800159
scalar RSUExampleScenario.node[118].veinsmobility 	totalDistance 	3413.6827855913
scalar RSUExampleScenario.node[118].veinsmobility 	totalCO2Emission 	755.1423596844
scalar RSUExampleScenario.node[119].veinsmobility 	startTime 	357.1
scalar RSUExampleScenario.node[119].veinsmobility 	totalTime 	335.9
scalar RSUExampleScenario.node[119].veinsmobility 	stopTime 	693.1
scalar RSUExampleScenario.node[119].veinsmobility 	minSpeed 	0.25273427149281
scalar RSUExampleScenario.node[119].veinsmobility 	maxSpeed 	13.9998662966
scalar RSUExampleScenario.node[119].veinsmobility 	totalDistance 	3410.0438128975
scalar RSUExampleScenario.node[119].veinsmobility 	totalCO2Emission 	758.29790268494
scalar RSUExampleScenario.node[120].veinsmobility 	startTime 	360.1
scalar RSUExampleScenario.node[120].veinsmobility 	totalTime 	336.7
scalar RSUExampleScenario.node[120].veinsmobility 	stopTime 	696.9
scalar RSUExampleScenario.node[120].veinsmobility 	minSpeed 	0.25896758558555
scalar RSUExampleScenario.node[120].veinsmobility 	maxSpeed 	13.999864081498
scalar RSUExampleScenario.node[120].veinsmobility 	totalDistance 	3413.8833723333
scalar RSUExampleScenario.node[120].veinsmobility 	totalCO2Emission 	757.53641485869
scalar RSUExampleScenario.node[121].veinsmobility 	startTime 	363.1
scalar RSUExampleScenario.node[121].veinsmobility 	totalTime 	337.4
scalar RSUExampleScenario.node[121].veinsmobility 	stopTime 	700.6
scalar RSUExampleScenario.node[121].veinsmobility 	minSpeed 	0.25423583198735
scalar RSUExampleScenario.node[121].veinsmobility 	maxSpeed 	13.999891211509
scalar RSUExampleScenario.node[121].veinsmobility 	totalDistance 	3409.8007961778
scalar RSUExampleScenario.node[121].veinsmobility 	totalCO2Emission 	761.59741418907
scalar RSUExampleScenario.node[122].veinsmobility 	startTime 	366.1
scalar RSUExampleScenario.node[122].veinsmobility 	totalTime 	338.1
scalar RSUExampleScenario.node[122].veinsmobility 	stopTime 	704.3
scalar RSUExampleScenario.node[122].veinsmobility 	minSpeed 	0.25364184042974
scalar RSUExampleScenario.node[122].veinsmobility 	maxSpeed 	13.999976593587
scalar RSUExampleScenario.node[122].veinsmobility 	totalDistance 	3413.6758425883
scalar RSUExampleScenario.node[122].veinsmobility 	totalCO2Emission 	762.11857645968
scalar RSUExampleScenario.node[123].veinsmobility 	startTime 	369.1
scalar RSUExampleScenario.node[123].veinsmobility 	totalTime 	338.9
scalar RSUExampleScenario.node[123].veinsmobility 	stopTime 	708.1
scalar RSUExampleScenario.node[123].veinsmobility 	minSpeed 	0.25742666478967
scalar RSUExampleScenario.node[123].veinsmobility 	maxSpeed 	13.999708436232
scalar RSUExampleScenario.node[123].veinsmobility 	totalDistance 	3410.2327226964
scalar RSUExampleScenario.node[123].veinsmobility 	totalCO2Emission 	755.86433226689
scalar RSUExampleScenario.node[124].veinsmobility 	startTime 	372.1
scalar RSUExampleScenario.node[124].veinsmobility 	totalTime 	339.7
scalar RSUExampleScenario.node[124].veinsmobility 	stopTime 	711.9
scalar RSUExampleScenario.node[124].veinsmobility 	minSpeed 	0.25647555823671
scalar RSUExampleScenario.node[124].veinsmobility 	maxSpeed 	13.999968638555
scalar RSUExampleScenario.node[124].veinsmobility 	totalDistance 	3414.2768854387
scalar RSUExampleScenario.node[124].veinsmobility 	totalCO2Emission 	760.9301631969
scalar RSUExampleScenario.node[125].veinsmobility 	startTime 	375.1
scalar RSUExampleScenario.node[125].veinsmobility 	totalTime 	340.4
scalar RSUExampleScenario.node[125].veinsmobility 	stopTime 	715.6
scalar RSUExampleScenario.node[125].veinsmobility 	minSpeed 	0.25913440904254
scalar RSUExampleScenario.node[125].veinsmobility 	maxSpeed 	13.999958784601
scalar RSUExampleScenario.node[125].veinsmobility 	totalDistance 	3409.8742376628
scalar RSUExampleScenario.node[125].veinsmobility 	totalCO2Emission 	764.21138378486
scalar RSUExampleScenario.node[126].veinsmobility 	startTime 	378.1
scalar RSUExampleScenario.node[126].veinsmobility 	totalTime 	341.1
scalar RSUExampleScenario.node[126].veinsmobility 	stopTime 	719.3
scalar RSUExampleScenario.node[126].veinsmobility 	minSpeed 	0.24864889169694
scalar RSUExampleScenario.node[126].veinsmobility 	maxSpeed 	13.999970012298
scalar RSUExampleScenario.node[126].veinsmobility 	totalDistance 	3413.8664771021
scalar RSUExampleScenario.node[126].veinsmobility 	totalCO2Emission 	764.36555991189
scalar RSUExampleScenario.node[127].veinsmobility 	startTime 	381.1
scalar RSUExampleScenario.node[127].veinsmobility 	totalTime 	341.8
scalar RSUExampleScenario.node[127].veinsmobility 	stopTime 	723
scalar RSUExampleScenario.node[127].veinsmobility 	minSpeed 	0.25791107248957
scalar RSUExampleScenario.node[127].veinsmobility 	maxSpeed 	13.99972245845
scalar RSUExampleScenario.node[127].veinsmobility 	totalDistance 	3409.8544076067
scalar RSUExampleScenario.node[127].veinsmobility 	totalCO2Emission 	760.84723560327
scalar RSUExampleScenario.node[128].veinsmobility 	startTime 	384.1
scalar RSUExampleScenario.node[128].veinsmobility 	totalTime 	342.4
scalar RSUExampleScenario.node[128].veinsmobility 	stopTime 	726.6
scalar RSUExampleScenario.node[128].veinsmobility 	minSpeed 	0.25757344966405
scalar RSUExampleScenario.node[128].veinsmobility 	maxSpeed 	13.999967053088
scalar RSUExampleScenario.node[128].veinsmobility 	totalDistance 	3413.9352545046
scalar RSUExampleScenario.node[128].veinsmobility 	totalCO2Emission 	765.1535838583
scalar RSUExampleScenario.node[129].veinsmobility 	startTime 	387.1
scalar RSUExampleScenario.node[129].veinsmobility 	totalTime 	343.1
scalar RSUExampleScenario.node[129].veinsmobility 	stopTime 	730.3
scalar RSUExampleScenario.node[129].veinsmobility 	minSpeed 	0.25444111687434
scalar RSUExampleScenario.node[129].veinsmobility 	maxSpeed 	13.999943023699
scalar RSUExampleScenario.node[129].veinsmobility 	totalDistance 	3410.0047507432
scalar RSUExampleScenario.node[129].veinsmobility 	totalCO2Emission 	765.18096956399
scalar RSUExampleScenario.node[130].veinsmobility 	startTime 	390.1
scalar RSUExampleScenario.node[130].veinsmobility 	totalTime 	343.7
scalar RSUExampleScenario.node[130].veinsmobility 	stopTime 	733.9
scalar RSUExampleScenario.node[130].veinsmobility 	minSpeed 	0.24746099808719
scalar RSUExampleScenario.node[130].veinsmobility 	maxSpeed 	13.999883086281
scalar RSUExampleScenario.node[130].veinsmobility 	totalDistance 	3413.749711676
scalar RSUExampleScenario.node[130].veinsmobility 	totalCO2Emission 	767.7941575969
scalar RSUExampleScenario.node[131].veinsmobility 	startTime 	393.1
scalar RSUExampleScenario.node[131].veinsmobility 	totalTime 	344.3
scalar RSUExampleScenario.node[131].veinsmobility 	stopTime 	737.5
scalar RSUExampleScenario.node[131].veinsmobility 	minSpeed 	0.25176295364206
scalar RSUExampleScenario.node[131].veinsmobility 	maxSpeed 	13.999990310976
scalar RSUExampleScenario.node[131].veinsmobility 	totalDistance 	3409.6901382427
scalar RSUExampleScenario.node[131].veinsmobility 	totalCO2Emission 	766.94013681635
scalar RSUExampleScenario.node[132].veinsmobility 	startTime 	396.1
scalar RSUExampleScenario.node[132].veinsmobility 	totalTime 	345
scalar RSUExampleScenario.node[132].veinsmobility 	stopTime 	741.2
scalar RSUExampleScenario.node[132].veinsmobility 	minSpeed 	0.25710865155561
scalar RSUExampleScenario.node[132].veinsmobility 	maxSpeed 	13.999949628022
scalar RSUExampleScenario.node[132].veinsmobility 	totalDistance 	3414.4497703195
scalar RSUExampleScenario.node[132].veinsmobility 	totalCO2Emission 	765.78666479489
scalar RSUExampleScenario.node[133].veinsmobility 	startTime 	399.1
scalar RSUExampleScenario.node[133].veinsmobility 	totalTime 	345.7
scalar RSUExampleScenario.node[133].veinsmobility 	stopTime 	744.9
scalar RSUExampleScenario.node[133].veinsmobility 	minSpeed 	0.2476826903068
scalar RSUExampleScenario.node[133].veinsmobility 	maxSpeed 	13.999988386901
scalar RSUExampleScenario.node[133].veinsmobility 	totalDistance 	3410.2016660947
scalar RSUExampleScenario.node[133].veinsmobility 	totalCO2Emission 	769.09801455699
scalar RSUExampleScenario.node[134].veinsmobility 	startTime 	402.1
scalar RSUExampleScenario.node[134].veinsmobility 	totalTime 	346.4
scalar RSUExampleScenario.node[134].veinsmobility 	stopTime 	748.6
scalar RSUExampleScenario.node[134].veinsmobility 	minSpeed 	0.25948996843304
scalar RSUExampleScenario.node[134].veinsmobility 	maxSpeed 	13.999918486262
scalar RSUExampleScenario.node[134].veinsmobility 	totalDistance 	3413.8621146087
scalar RSUExampleScenario.node[134].veinsmobility 	totalCO2Emission 	767.11691396865
scalar RSUExampleScenario.node[135].veinsmobility 	startTime 	405.1
scalar RSUExampleScenario.node[135].veinsmobility 	totalTime 	347
scalar RSUExampleScenario.node[135].veinsmobility 	stopTime 	752.2
scalar RSUExampleScenario.node[135].veinsmobility 	minSpeed 	0.25975023938622
scalar RSUExampleScenario.node[135].veinsmobility 	maxSpeed 	13.999981223014
scalar RSUExampleScenario.node[135].veinsmobility 	totalDistance 	3409.6869369709
scalar RSUExampleScenario.node[135].veinsmobility 	totalCO2Emission 	769.85942772602
scalar RSUExampleScenario.node[136].veinsmobility 	startTime 	408.1
scalar RSUExampleScenario.node[136].veinsmobility 	totalTime 	347.7
scalar RSUExampleScenario.node[136].veinsmobility 	stopTime 	755.9
scalar RSUExampleScenario.node[136].veinsmobility 	minSpeed 	0.25798109857761
scalar RSUExampleScenario.node[136].veinsmobility 	maxSpeed 	13.999922922247
scalar RSUExampleScenario.node[136].veinsmobility 	totalDistance 	3413.8704264381
scalar RSUExampleScenario.node[136].veinsmobility 	totalCO2Emission 	772.59747927239
scalar RSUExampleScenario.node[137].veinsmobility 	startTime 	411.1
scalar RSUExampleScenario.node[137].veinsmobility 	totalTime 	348.4
scalar RSUExampleScenario.node[137].veinsmobility 	stopTime 	759.6
scalar RSUExampleScenario.node[137].veinsmobility 	minSpeed 	0.25555242862622
scalar RSUExampleScenario.node[137].veinsmobility 	maxSpeed 	13.999977085986
scalar RSUExampleScenario.node[137].veinsmobility 	totalDistance 	3409.9953545474
scalar RSUExampleScenario.node[137].veinsmobility 	totalCO2Emission 	770.32344816438
scalar RSUExampleScenario.node[138].veinsmobility 	startTime 	414.1
scalar RSUExampleScenario.node[138].veinsmobility 	totalTime 	349.1
scalar RSUExampleScenario.node[138].veinsmobility 	stopTime 	763.3
scalar RSUExampleScenario.node[138].veinsmobility 	minSpeed 	0.25691553500341
scalar RSUExampleScenario.node[138].veinsmobility 	maxSpeed 	13.999968967568
scalar RSUExampleScenario.node[138].veinsmobility 	totalDistance 	3413.8634074908
scalar RSUExampleScenario.node[138].veinsmobility 	totalCO2Emission 	770.36094483036
scalar RSUExampleScenario.node[139].veinsmobility 	startTime 	417.1
scalar RSUExampleScenario.node[139].veinsmobility 	totalTime 	349.8
scalar RSUExampleScenario.node[139].veinsmobility 	stopTime 	767
scalar RSUExampleScenario.node[139].veinsmobility 	minSpeed 	0.25405807630671
scalar RSUExampleScenario.node[139].veinsmobility 	maxSpeed 	13.999986813632
scalar RSUExampleScenario.node[139].veinsmobility 	totalDistance 	3409.9433782342
scalar RSUExampleScenario.node[139].veinsmobility 	totalCO2Emission 	769.79882256887
scalar RSUExampleScenario.node[140].veinsmobility 	startTime 	420.1
scalar RSUExampleScenario.node[140].veinsmobility 	totalTime 	350.5
scalar RSUExampleScenario.node[140].veinsmobility 	stopTime 	770.7
scalar RSUExampleScenario.node[140].veinsmobility 	minSpeed 	0.2491364642838
scalar RSUExampleScenario.node[140].veinsmobility 	maxSpeed 	13.999859253149
scalar RSUExampleScenario.node[140].veinsmobility 	totalDistance 	3413.8779671068
scalar RSUExampleScenario.node[140].veinsmobility 	totalCO2Emission 	774.08432451358
scalar RSUExampleScenario.node[141].veinsmobility 	startTime 	423.1
scalar RSUExampleScenario.node[141].veinsmobility 	totalTime 	351.2
scalar RSUExampleScenario.node[141].veinsmobility 	stopTime 	774.4
scalar RSUExampleScenario.node[141].veinsmobility 	minSpeed 	0.25403744017053
scalar RSUExampleScenario.node[141].veinsmobility 	maxSpeed 	13.999993566207
scalar RSUExampleScenario.node[141].veinsmobility 	totalDistance 	3410.2875781574
scalar RSUExampleScenario.node[141].veinsmobility 	totalCO2Emission 	774.71033569067
scalar RSUExampleScenario.node[142].veinsmobility 	startTime 	426.1
scalar RSUExampleScenario.node[142].veinsmobility 	totalTime 	351.9
scalar RSUExampleScenario.node[142].veinsmobility 	stopTime 	778.1
scalar RSUExampleScenario.node[142].veinsmobility 	minSpeed 	0.25680381362676
scalar RSUExampleScenario.node[142].veinsmobility 	maxSpeed 	13.999986360641
scalar RSUExampleScenario.node[142].veinsmobility 	totalDistance 	3410.1323502104
scalar RSUExampleScenario.node[142].veinsmobility 	totalCO2Emission 	773.48886704572
scalar RSUExampleScenario.node[143].veinsmobility 	startTime 	429.1
scalar RSUExampleScenario.node[143].veinsmobility 	totalTime 	352.6
scalar RSUExampleScenario.node[143].veinsmobility 	stopTime 	781.8
scalar RSUExampleScenario.node[143].veinsmobility 	minSpeed 	0.25707964950614
scalar RSUExampleScenario.node[143].veinsmobility 	maxSpeed 	13.999981073642
scalar RSUExampleScenario.node[143].veinsmobility 	totalDistance 	3413.6990467544
scalar RSUExampleScenario.node[143].veinsmobility 	totalCO2Emission 	774.54421892612
scalar RSUExampleScenario.node[144].veinsmobility 	startTime 	432.1
scalar RSUExampleScenario.node[144].veinsmobility 	totalTime 	353.3
scalar RSUExampleScenario.node[144].veinsmobility 	stopTime 	785.5
scalar RSUExampleScenario.node[144].veinsmobility 	minSpeed 	0.25300581907388
scalar RSUExampleScenario.node[144].veinsmobility 	maxSpeed 	13.999963401195
scalar RSUExampleScenario.node[144].veinsmobility 	totalDistance 	3409.7135179196
scalar RSUExampleScenario.node[144].veinsmobility 	totalCO2Emission 	775.20933757364
scalar RSUExampleScenario.node[145].veinsmobility 	startTime 	435.1
scalar RSUExampleScenario.node[145].veinsmobility 	totalTime 	354
scalar RSUExampleScenario.node[145].veinsmobility 	stopTime 	789.2
scalar RSUExampleScenario.node[145].veinsmobility 	minSpeed 	0.25267529220483
scalar RSUExampleScenario.node[145].veinsmobility 	maxSpeed 	13.999742578366
scalar RSUExampleScenario.node[145].veinsmobility 	totalDistance 	3414.4200864486
scalar RSUExampleScenario.node[145].veinsmobility 	totalCO2Emission 	776.97845317751
scalar RSUExampleScenario.node[146].veinsmobility 	startTime 	438.1
scalar RSUExampleScenario.node[146].veinsmobility 	totalTime 	354.7
scalar RSUExampleScenario.node[146].veinsmobility 	stopTime 	792.9
scalar RSUExampleScenario.node[146].veinsmobility 	minSpeed 	0.25813838871242
scalar RSUExampleScenario.node[146].veinsmobility 	maxSpeed 	13.999977465244
scalar RSUExampleScenario.node[146].veinsmobility 	totalDistance 	3410.2605008822
scalar RSUExampleScenario.node[146].veinsmobility 	totalCO2Emission 	781.04526597056
scalar RSUExampleScenario.node[147].veinsmobility 	startTime 	441.1
scalar RSUExampleScenario.node[147].veinsmobility 	totalTime 	355.5
scalar RSUExampleScenario.node[147].veinsmobility 	stopTime 	796.7
scalar RSUExampleScenario.node[147].veinsmobility 	minSpeed 	0.25392040242837
scalar RSUExampleScenario.node[147].veinsmobility 	maxSpeed 	13.999819480837
scalar RSUExampleScenario.node[147].veinsmobility 	totalDistance 	3414.4186011455
scalar RSUExampleScenario.node[147].veinsmobility 	totalCO2Emission 	781.06474329337
scalar RSUExampleScenario.node[148].veinsmobility 	startTime 	444.1
scalar RSUExampleScenario.node[148].veinsmobility 	totalTime 	356.2
scalar RSUExampleScenario.node[148].veinsmobility 	stopTime 	800.4
scalar RSUExampleScenario.node[148].veinsmobility 	minSpeed 	0.25588924592081
scalar RSUExampleScenario.node[148].veinsmobility 	maxSpeed 	13.999944856002
scalar RSUExampleScenario.node[148].veinsmobility 	totalDistance 	3409.7742668692
scalar RSUExampleScenario.node[148].veinsmobility 	totalCO2Emission 	778.93192309927
scalar RSUExampleScenario.node[149].veinsmobility 	startTime 	447.1
scalar RSUExampleScenario.node[149].veinsmobility 	totalTime 	356.9
scalar RSUExampleScenario.node[149].veinsmobility 	stopTime 	804.1
scalar RSUExampleScenario.node[149].veinsmobility 	minSpeed 	0.25218578858115
scalar RSUExampleScenario.node[149].veinsmobility 	maxSpeed 	13.999717553311
scalar RSUExampleScenario.node[149].veinsmobility 	totalDistance 	3413.8273710398
scalar RSUExampleScenario.node[149].veinsmobility 	totalCO2Emission 	776.03790676533
scalar RSUExampleScenario.node[150].veinsmobility 	startTime 	450.1
scalar RSUExampleScenario.node[150].veinsmobility 	totalTime 	357.5
scalar RSUExampleScenario.node[150].veinsmobility 	stopTime 	807.7
scalar RSUExampleScenario.node[150].veinsmobility 	minSpeed 	0.2568460110249
scalar RSUExampleScenario.node[150].veinsmobility 	maxSpeed 	13.999999702072
scalar RSUExampleScenario.node[150].veinsmobility 	totalDistance 	3409.6290911451
scalar RSUExampleScenario.node[150].veinsmobility 	totalCO2Emission 	777.26612054613
scalar RSUExampleScenario.node[151].veinsmobility 	startTime 	453.1
scalar RSUExampleScenario.node[151].veinsmobility 	totalTime 	358.2
scalar RSUExampleScenario.node[151].veinsmobility 	stopTime 	811.4
scalar RSUExampleScenario.node[151].veinsmobility 	minSpeed 	0.25922759289551
scalar RSUExampleScenario.node[151].veinsmobility 	maxSpeed 	13.999886155182
scalar RSUExampleScenario.node[151].veinsmobility 	totalDistance 	3414.2594463098
scalar RSUExampleScenario.node[151].veinsmobility 	totalCO2Emission 	779.98296861519
scalar RSUExampleScenario.node[152].veinsmobility 	startTime 	456.1
scalar RSUExampleScenario.node[152].veinsmobility 	totalTime 	358.9
scalar RSUExampleScenario.node[152].veinsmobility 	stopTime 	815.1
scalar RSUExampleScenario.node[152].veinsmobility 	minSpeed 	0.25589525055606
scalar RSUExampleScenario.node[152].veinsmobility 	maxSpeed 	13.999948525026
scalar RSUExampleScenario.node[152].veinsmobility 	totalDistance 	3409.8935383633
[...]
scalar RSUExampleScenario.node[628].veinsmobility 	totalCO2Emission 	327.46894977414
scalar RSUExampleScenario.node[629].veinsmobility 	startTime 	1887.1
scalar RSUExampleScenario.node[629].veinsmobility 	totalTime 	112.8
scalar RSUExampleScenario.node[629].veinsmobility 	stopTime 	2000
scalar RSUExampleScenario.node[629].veinsmobility 	minSpeed 	0.257558956736
scalar RSUExampleScenario.node[629].veinsmobility 	maxSpeed 	13.999980015957
scalar RSUExampleScenario.node[629].veinsmobility 	totalDistance 	1361.0603227188
scalar RSUExampleScenario.node[629].veinsmobility 	totalCO2Emission 	314.60536012723
scalar RSUExampleScenario.node[630].veinsmobility 	startTime 	1890.1
scalar RSUExampleScenario.node[630].veinsmobility 	totalTime 	109.8
scalar RSUExampleScenario.node[630].veinsmobility 	stopTime 	2000
scalar RSUExampleScenario.node[630].veinsmobility 	minSpeed 	0.25518698523776
scalar RSUExampleScenario.node[630].veinsmobility 	maxSpeed 	13.99960506459
scalar RSUExampleScenario.node[630].veinsmobility 	totalDistance 	1318.8110197609
scalar RSUExampleScenario.node[630].veinsmobility 	totalCO2Emission 	312.10189017238
scalar RSUExampleScenario.node[631].veinsmobility 	startTime 	1893.1
scalar RSUExampleScenario.node[631].veinsmobility 	totalTime 	106.8
scalar RSUExampleScenario.node[631].veinsmobility 	stopTime 	2000
scalar RSUExampleScenario.node[631].veinsmobility 	minSpeed 	0.25034453816968
scalar RSUExampleScenario.node[631].veinsmobility 	maxSpeed 	13.999812848214
scalar RSUExampleScenario.node[631].veinsmobility 	totalDistance 	1279.224863562
scalar RSUExampleScenario.node[631].veinsmobility 	totalCO2Emission 	301.14915545439
scalar RSUExampleScenario.node[632].veinsmobility 	startTime 	1896.1
scalar RSUExampleScenario.node[632].veinsmobility 	totalTime 	103.8
scalar RSUExampleScenario.node[632].veinsmobility 	stopTime 	2000
scalar RSUExampleScenario.node[632].veinsmobility 	minSpeed 	0.25251518962951
scalar RSUExampleScenario.node[632].veinsmobility 	maxSpeed 	13.999942089387
scalar RSUExampleScenario.node[632].veinsmobility 	totalDistance 	1238.0213802581
scalar RSUExampleScenario.node[632].veinsmobility 	totalCO2Emission 	299.22370683518
scalar RSUExampleScenario.node[633].veinsmobility 	startTime 	1899.1
scalar RSUExampleScenario.node[633].veinsmobility 	totalTime 	100.8
scalar RSUExampleScenario.node[633].veinsmobility 	stopTime 	2000
scalar RSUExampleScenario.node[633].veinsmobility 	minSpeed 	0.25646627053921
scalar RSUExampleScenario.node[633].veinsmobility 	maxSpeed 	13.999828732943
scalar RSUExampleScenario.node[633].veinsmobility 	totalDistance 	1197.2344978469
scalar RSUExampleScenario.node[633].veinsmobility 	totalCO2Emission 	287.41868941166
scalar RSUExampleScenario.node[634].veinsmobility 	startTime 	1902.1
scalar RSUExampleScenario.node[634].veinsmobility 	totalTime 	97.8
scalar RSUExampleScenario.node[634].veinsmobility 	stopTime 	2000
scalar RSUExampleScenario.node[634].veinsmobility 	minSpeed 	0.25267770201457
scalar RSUExampleScenario.node[634].veinsmobility 	maxSpeed 	13.999766560325
scalar RSUExampleScenario.node[634].veinsmobility 	totalDistance 	1154.2920688432
scalar RSUExampleScenario.node[634].veinsmobility 	totalCO2Emission 	281.4569343922
scalar RSUExampleScenario.node[635].veinsmobility 	startTime 	1905.1
scalar RSUExampleScenario.node[635].veinsmobility 	totalTime 	94.8
scalar RSUExampleScenario.node[635].veinsmobility 	stopTime 	2000
scalar RSUExampleScenario.node[635].veinsmobility 	minSpeed 	0.25883143151412
scalar RSUExampleScenario.node[635].veinsmobility 	maxSpeed 	13.999361970488
scalar RSUExampleScenario.node[635].veinsmobility 	totalDistance 	1110.7689625585
scalar RSUExampleScenario.node[635].veinsmobility 	totalCO2Emission 	277.50345529945
scalar RSUExampleScenario.node[636].veinsmobility 	startTime 	1908.1
scalar RSUExampleScenario.node[636].veinsmobility 	totalTime 	91.8
scalar RSUExampleScenario.node[636].veinsmobility 	stopTime 	2000
scalar RSUExampleScenario.node[636].veinsmobility 	minSpeed 	0.25821652180748
scalar RSUExampleScenario.node[636].veinsmobility 	maxSpeed 	13.999581344933
scalar RSUExampleScenario.node[636].veinsmobility 	totalDistance 	1068.7002908937
scalar RSUExampleScenario.node[636].veinsmobility 	totalCO2Emission 	269.41874684578
scalar RSUExampleScenario.node[637].veinsmobility 	startTime 	1911.1
scalar RSUExampleScenario.node[637].veinsmobility 	totalTime 	88.8
scalar RSUExampleScenario.node[637].veinsmobility 	stopTime 	2000
scalar RSUExampleScenario.node[637].veinsmobility 	minSpeed 	0.25712474077777
scalar RSUExampleScenario.node[637].veinsmobility 	maxSpeed 	13.999911909483
scalar RSUExampleScenario.node[637].veinsmobility 	totalDistance 	1028.0158865134
scalar RSUExampleScenario.node[637].veinsmobility 	totalCO2Emission 	260.1595024344
scalar RSUExampleScenario.node[638].veinsmobility 	startTime 	1914.1
scalar RSUExampleScenario.node[638].veinsmobility 	totalTime 	85.8
scalar RSUExampleScenario.node[638].veinsmobility 	stopTime 	2000
scalar RSUExampleScenario.node[638].veinsmobility 	minSpeed 	0.25407601655531
scalar RSUExampleScenario.node[638].veinsmobility 	maxSpeed 	13.999782715044
scalar RSUExampleScenario.node[638].veinsmobility 	totalDistance 	987.10506024893
scalar RSUExampleScenario.node[638].veinsmobility 	totalCO2Emission 	251.09395023644
scalar RSUExampleScenario.node[639].veinsmobility 	startTime 	1917.1
scalar RSUExampleScenario.node[639].veinsmobility 	totalTime 	82.8
scalar RSUExampleScenario.node[639].veinsmobility 	stopTime 	2000
scalar RSUExampleScenario.node[639].veinsmobility 	minSpeed 	0.25872685132036
scalar RSUExampleScenario.node[639].veinsmobility 	maxSpeed 	13.999967842053
scalar RSUExampleScenario.node[639].veinsmobility 	totalDistance 	954.25980163269
scalar RSUExampleScenario.node[639].veinsmobility 	totalCO2Emission 	233.39934113518
scalar RSUExampleScenario.node[640].veinsmobility 	startTime 	1920.1
scalar RSUExampleScenario.node[640].veinsmobility 	totalTime 	79.8
scalar RSUExampleScenario.node[640].veinsmobility 	stopTime 	2000
scalar RSUExampleScenario.node[640].veinsmobility 	minSpeed 	0.2476224099102
scalar RSUExampleScenario.node[640].veinsmobility 	maxSpeed 	13.999023692203
scalar RSUExampleScenario.node[640].veinsmobility 	totalDistance 	937.51302501776
scalar RSUExampleScenario.node[640].veinsmobility 	totalCO2Emission 	222.18016330619
scalar RSUExampleScenario.node[641].veinsmobility 	startTime 	1923.1
scalar RSUExampleScenario.node[641].veinsmobility 	totalTime 	76.8
scalar RSUExampleScenario.node[641].veinsmobility 	stopTime 	2000
scalar RSUExampleScenario.node[641].veinsmobility 	minSpeed 	0.25506411954062
scalar RSUExampleScenario.node[641].veinsmobility 	maxSpeed 	13.999734376045
scalar RSUExampleScenario.node[641].veinsmobility 	totalDistance 	912.6950599797
scalar RSUExampleScenario.node[641].veinsmobility 	totalCO2Emission 	217.57328532862
scalar RSUExampleScenario.node[642].veinsmobility 	startTime 	1926.1
scalar RSUExampleScenario.node[642].veinsmobility 	totalTime 	73.8
scalar RSUExampleScenario.node[642].veinsmobility 	stopTime 	2000
scalar RSUExampleScenario.node[642].veinsmobility 	minSpeed 	0.25386399024981
scalar RSUExampleScenario.node[642].veinsmobility 	maxSpeed 	13.999760252628
scalar RSUExampleScenario.node[642].veinsmobility 	totalDistance 	872.8608859812
scalar RSUExampleScenario.node[642].veinsmobility 	totalCO2Emission 	212.72228233457
scalar RSUExampleScenario.node[643].veinsmobility 	startTime 	1929.1
scalar RSUExampleScenario.node[643].veinsmobility 	totalTime 	70.8
scalar RSUExampleScenario.node[643].veinsmobility 	stopTime 	2000
scalar RSUExampleScenario.node[643].veinsmobility 	minSpeed 	0.25233751199488
scalar RSUExampleScenario.node[643].veinsmobility 	maxSpeed 	13.999980022041
scalar RSUExampleScenario.node[643].veinsmobility 	totalDistance 	830.58767146082
scalar RSUExampleScenario.node[643].veinsmobility 	totalCO2Emission 	205.99189157622
scalar RSUExampleScenario.node[644].veinsmobility 	startTime 	1932.1
scalar RSUExampleScenario.node[644].veinsmobility 	totalTime 	67.8
scalar RSUExampleScenario.node[644].veinsmobility 	stopTime 	2000
scalar RSUExampleScenario.node[644].veinsmobility 	minSpeed 	0.25970554075087
scalar RSUExampleScenario.node[644].veinsmobility 	maxSpeed 	13.999904437256
scalar RSUExampleScenario.node[644].veinsmobility 	totalDistance 	789.25138342808
scalar RSUExampleScenario.node[644].veinsmobility 	totalCO2Emission 	199.47517116969
scalar RSUExampleScenario.node[645].veinsmobility 	startTime 	1935.1
scalar RSUExampleScenario.node[645].veinsmobility 	totalTime 	64.8
scalar RSUExampleScenario.node[645].veinsmobility 	stopTime 	2000
scalar RSUExampleScenario.node[645].veinsmobility 	minSpeed 	0.25753697962221
scalar RSUExampleScenario.node[645].veinsmobility 	maxSpeed 	13.999318310162
scalar RSUExampleScenario.node[645].veinsmobility 	totalDistance 	747.22888067736
scalar RSUExampleScenario.node[645].veinsmobility 	totalCO2Emission 	191.80543749248
scalar RSUExampleScenario.node[646].veinsmobility 	startTime 	1938.1
scalar RSUExampleScenario.node[646].veinsmobility 	totalTime 	61.8
scalar RSUExampleScenario.node[646].veinsmobility 	stopTime 	2000
scalar RSUExampleScenario.node[646].veinsmobility 	minSpeed 	0.25777296918421
scalar RSUExampleScenario.node[646].veinsmobility 	maxSpeed 	13.999594105734
scalar RSUExampleScenario.node[646].veinsmobility 	totalDistance 	705.39356249182
scalar RSUExampleScenario.node[646].veinsmobility 	totalCO2Emission 	184.44100829836
scalar RSUExampleScenario.node[647].veinsmobility 	startTime 	1941.1
scalar RSUExampleScenario.node[647].veinsmobility 	totalTime 	58.8
scalar RSUExampleScenario.node[647].veinsmobility 	stopTime 	2000
scalar RSUExampleScenario.node[647].veinsmobility 	minSpeed 	0.2548695461601
scalar RSUExampleScenario.node[647].veinsmobility 	maxSpeed 	13.998977211355
scalar RSUExampleScenario.node[647].veinsmobility 	totalDistance 	664.79936295258
scalar RSUExampleScenario.node[647].veinsmobility 	totalCO2Emission 	179.80011194301
scalar RSUExampleScenario.node[648].veinsmobility 	startTime 	1944.1
scalar RSUExampleScenario.node[648].veinsmobility 	totalTime 	55.8
scalar RSUExampleScenario.node[648].veinsmobility 	stopTime 	2000
scalar RSUExampleScenario.node[648].veinsmobility 	minSpeed 	0.24856480155094
scalar RSUExampleScenario.node[648].veinsmobility 	maxSpeed 	13.999807302787
scalar RSUExampleScenario.node[648].veinsmobility 	totalDistance 	623.33028807041
scalar RSUExampleScenario.node[648].veinsmobility 	totalCO2Emission 	170.97025768732
scalar RSUExampleScenario.node[649].veinsmobility 	startTime 	1947.1
scalar RSUExampleScenario.node[649].veinsmobility 	totalTime 	52.8
scalar RSUExampleScenario.node[649].veinsmobility 	stopTime 	2000
scalar RSUExampleScenario.node[649].veinsmobility 	minSpeed 	0.25010491914954
scalar RSUExampleScenario.node[649].veinsmobility 	maxSpeed 	13.999778117912
scalar RSUExampleScenario.node[649].veinsmobility 	totalDistance 	581.95829088798
scalar RSUExampleScenario.node[649].veinsmobility 	totalCO2Emission 	163.4000378434
scalar RSUExampleScenario.node[650].veinsmobility 	startTime 	1950.1
scalar RSUExampleScenario.node[650].veinsmobility 	totalTime 	49.8
scalar RSUExampleScenario.node[650].veinsmobility 	stopTime 	2000
scalar RSUExampleScenario.node[650].veinsmobility 	minSpeed 	0.25905138546461
scalar RSUExampleScenario.node[650].veinsmobility 	maxSpeed 	13.998761752194
scalar RSUExampleScenario.node[650].veinsmobility 	totalDistance 	537.64063896507
scalar RSUExampleScenario.node[650].veinsmobility 	totalCO2Emission 	158.33241311718
scalar RSUExampleScenario.node[651].veinsmobility 	startTime 	1953.1
scalar RSUExampleScenario.node[651].veinsmobility 	totalTime 	46.8
scalar RSUExampleScenario.node[651].veinsmobility 	stopTime 	2000
scalar RSUExampleScenario.node[651].veinsmobility 	minSpeed 	0.25553188910848
scalar RSUExampleScenario.node[651].veinsmobility 	maxSpeed 	13.999892337085
scalar RSUExampleScenario.node[651].veinsmobility 	totalDistance 	498.30646937014
scalar RSUExampleScenario.node[651].veinsmobility 	totalCO2Emission 	149.84358288451
scalar RSUExampleScenario.node[652].veinsmobility 	startTime 	1956.1
scalar RSUExampleScenario.node[652].veinsmobility 	totalTime 	43.8
scalar RSUExampleScenario.node[652].veinsmobility 	stopTime 	2000
scalar RSUExampleScenario.node[652].veinsmobility 	minSpeed 	0.24949993557693
scalar RSUExampleScenario.node[652].veinsmobility 	maxSpeed 	13.999555360868
scalar RSUExampleScenario.node[652].veinsmobility 	totalDistance 	454.00278336051
scalar RSUExampleScenario.node[652].veinsmobility 	totalCO2Emission 	142.77417044289
scalar RSUExampleScenario.node[653].veinsmobility 	startTime 	1959.1
scalar RSUExampleScenario.node[653].veinsmobility 	totalTime 	40.8
scalar RSUExampleScenario.node[653].veinsmobility 	stopTime 	2000
scalar RSUExampleScenario.node[653].veinsmobility 	minSpeed 	0.25940839519398
scalar RSUExampleScenario.node[653].veinsmobility 	maxSpeed 	13.998005699399
scalar RSUExampleScenario.node[653].veinsmobility 	totalDistance 	412.49675075056
scalar RSUExampleScenario.node[653].veinsmobility 	totalCO2Emission 	136.22237748456
scalar RSUExampleScenario.node[654].veinsmobility 	startTime 	1962.1
scalar RSUExampleScenario.node[654].veinsmobility 	totalTime 	37.8
scalar RSUExampleScenario.node[654].veinsmobility 	stopTime 	2000
scalar RSUExampleScenario.node[654].veinsmobility 	minSpeed 	0.24899149401137
scalar RSUExampleScenario.node[654].veinsmobility 	maxSpeed 	13.999453943751
scalar RSUExampleScenario.node[654].veinsmobility 	totalDistance 	369.08374388178
scalar RSUExampleScenario.node[654].veinsmobility 	totalCO2Emission 	129.70589827189
scalar RSUExampleScenario.node[655].veinsmobility 	startTime 	1965.1
scalar RSUExampleScenario.node[655].veinsmobility 	totalTime 	34.8
scalar RSUExampleScenario.node[655].veinsmobility 	stopTime 	2000
scalar RSUExampleScenario.node[655].veinsmobility 	minSpeed 	0.24797197200544
scalar RSUExampleScenario.node[655].veinsmobility 	maxSpeed 	13.996884044744
scalar RSUExampleScenario.node[655].veinsmobility 	totalDistance 	328.81466495336
scalar RSUExampleScenario.node[655].veinsmobility 	totalCO2Emission 	122.29830795761
scalar RSUExampleScenario.node[656].veinsmobility 	startTime 	1968.1
scalar RSUExampleScenario.node[656].veinsmobility 	totalTime 	31.8
scalar RSUExampleScenario.node[656].veinsmobility 	stopTime 	2000
scalar RSUExampleScenario.node[656].veinsmobility 	minSpeed 	0.25903908528853
scalar RSUExampleScenario.node[656].veinsmobility 	maxSpeed 	13.980823927822
scalar RSUExampleScenario.node[656].veinsmobility 	totalDistance 	287.52646642512
scalar RSUExampleScenario.node[656].veinsmobility 	totalCO2Emission 	114.89265419929
scalar RSUExampleScenario.node[657].veinsmobility 	startTime 	1971.1
scalar RSUExampleScenario.node[657].veinsmobility 	totalTime 	28.8
scalar RSUExampleScenario.node[657].veinsmobility 	stopTime 	2000
scalar RSUExampleScenario.node[657].veinsmobility 	minSpeed 	0.25418859937089
scalar RSUExampleScenario.node[657].veinsmobility 	maxSpeed 	13.880663809048
scalar RSUExampleScenario.node[657].veinsmobility 	totalDistance 	248.079083115
scalar RSUExampleScenario.node[657].veinsmobility 	totalCO2Emission 	97.932246880534
scalar RSUExampleScenario.node[658].veinsmobility 	startTime 	1974.1
scalar RSUExampleScenario.node[658].veinsmobility 	totalTime 	25.8
scalar RSUExampleScenario.node[658].veinsmobility 	stopTime 	2000
scalar RSUExampleScenario.node[658].veinsmobility 	minSpeed 	0.25790951725096
scalar RSUExampleScenario.node[658].veinsmobility 	maxSpeed 	13.888891040343
scalar RSUExampleScenario.node[658].veinsmobility 	totalDistance 	225.3268616448
scalar RSUExampleScenario.node[658].veinsmobility 	totalCO2Emission 	82.511518063904
scalar RSUExampleScenario.node[659].veinsmobility 	startTime 	1977.1
scalar RSUExampleScenario.node[659].veinsmobility 	totalTime 	22.8
scalar RSUExampleScenario.node[659].veinsmobility 	stopTime 	2000
scalar RSUExampleScenario.node[659].veinsmobility 	minSpeed 	0.2550908772978
scalar RSUExampleScenario.node[659].veinsmobility 	maxSpeed 	13.86886893501
scalar RSUExampleScenario.node[659].veinsmobility 	totalDistance 	207.4422886681
scalar RSUExampleScenario.node[659].veinsmobility 	totalCO2Emission 	77.949674957054
scalar RSUExampleScenario.node[660].veinsmobility 	startTime 	1980.1
scalar RSUExampleScenario.node[660].veinsmobility 	totalTime 	19.8
scalar RSUExampleScenario.node[660].veinsmobility 	stopTime 	2000
scalar RSUExampleScenario.node[660].veinsmobility 	minSpeed 	0.24766186883673
scalar RSUExampleScenario.node[660].veinsmobility 	maxSpeed 	13.882985457226
scalar RSUExampleScenario.node[660].veinsmobility 	totalDistance 	173.77823406297
scalar RSUExampleScenario.node[660].veinsmobility 	totalCO2Emission 	75.18157463896
scalar RSUExampleScenario.node[661].veinsmobility 	startTime 	1983.1
scalar RSUExampleScenario.node[661].veinsmobility 	totalTime 	16.8
scalar RSUExampleScenario.node[661].veinsmobility 	stopTime 	2000
scalar RSUExampleScenario.node[661].veinsmobility 	minSpeed 	0.24932469453313
scalar RSUExampleScenario.node[661].veinsmobility 	maxSpeed 	13.885298164666
scalar RSUExampleScenario.node[661].veinsmobility 	totalDistance 	136.60106860654
scalar RSUExampleScenario.node[661].veinsmobility 	totalCO2Emission 	56.634266997727
scalar RSUExampleScenario.node[662].veinsmobility 	startTime 	1986.1
scalar RSUExampleScenario.node[662].veinsmobility 	totalTime 	13.8
scalar RSUExampleScenario.node[662].veinsmobility 	stopTime 	2000
scalar RSUExampleScenario.node[662].veinsmobility 	minSpeed 	0.25289906935277
scalar RSUExampleScenario.node[662].veinsmobility 	maxSpeed 	13.885059896279
scalar RSUExampleScenario.node[662].veinsmobility 	totalDistance 	116.74902986598
scalar RSUExampleScenario.node[662].veinsmobility 	totalCO2Emission 	43.010735181359
scalar RSUExampleScenario.node[663].veinsmobility 	startTime 	1989.1
scalar RSUExampleScenario.node[663].veinsmobility 	totalTime 	10.8
scalar RSUExampleScenario.node[663].veinsmobility 	stopTime 	2000
scalar RSUExampleScenario.node[663].veinsmobility 	minSpeed 	0.25619024842698
scalar RSUExampleScenario.node[663].veinsmobility 	maxSpeed 	13.889988049988
scalar RSUExampleScenario.node[663].veinsmobility 	totalDistance 	96.922036410161
scalar RSUExampleScenario.node[663].veinsmobility 	totalCO2Emission 	39.843727569961
scalar RSUExampleScenario.node[664].veinsmobility 	startTime 	1992.1
scalar RSUExampleScenario.node[664].veinsmobility 	totalTime 	7.8
scalar RSUExampleScenario.node[664].veinsmobility 	stopTime 	2000
scalar RSUExampleScenario.node[664].veinsmobility 	minSpeed 	0.25102416861942
scalar RSUExampleScenario.node[664].veinsmobility 	maxSpeed 	13.872079966029
scalar RSUExampleScenario.node[664].veinsmobility 	totalDistance 	61.512795065421
scalar RSUExampleScenario.node[664].veinsmobility 	totalCO2Emission 	35.821638823557
scalar RSUExampleScenario.node[665].veinsmobility 	startTime 	1995.1
scalar RSUExampleScenario.node[665].veinsmobility 	totalTime 	4.8
scalar RSUExampleScenario.node[665].veinsmobility 	stopTime 	2000
scalar RSUExampleScenario.node[665].veinsmobility 	minSpeed 	0.25161298283236
scalar RSUExampleScenario.node[665].veinsmobility 	maxSpeed 	10.188932473107
scalar RSUExampleScenario.node[665].veinsmobility 	totalDistance 	25.163712982592
scalar RSUExampleScenario.node[665].veinsmobility 	totalCO2Emission 	19.312245209664
scalar RSUExampleScenario.node[666].veinsmobility 	startTime 	1998.1
scalar RSUExampleScenario.node[666].veinsmobility 	totalTime 	1.8
scalar RSUExampleScenario.node[666].veinsmobility 	stopTime 	2000
scalar RSUExampleScenario.node[666].veinsmobility 	minSpeed 	0.24940006844117
scalar RSUExampleScenario.node[666].veinsmobility 	maxSpeed 	3.6639116717579
scalar RSUExampleScenario.node[666].veinsmobility 	totalDistance 	3.7296548384456
scalar RSUExampleScenario.node[666].veinsmobility 	totalCO2Emission 	3.7639084134372
