version 2
run statisticLeach-836-20150322-05:14:27-14872
attr c 14
attr configname statisticLeach
attr datetime 20150322-05:14:27
attr experiment statisticLeach
attr inifile omnetpp.ini
attr iterationvars "$p=1/4, $c=14"
attr iterationvars2 "$p=1/4, $c=14, $repetition=6"
attr measurement "$p=1/4, $c=14"
attr network RSUExampleScenario
attr p 1/4
attr processid 14872
attr repetition 6
attr replication #6
attr resultdir results
attr runnumber 836
attr seedset 836

scalar . 	c 	14
scalar RSUExampleScenario.node[0].appl 	meanClusterNodes 	0
scalar RSUExampleScenario.node[0].appl 	meanClusterHeadUtility 	0
scalar RSUExampleScenario.node[0].appl 	NumberofCH 	0.27027027027027
scalar RSUExampleScenario.node[0].appl 	NumberofON 	0
scalar RSUExampleScenario.node[0].appl 	NumberofFN 	0.72972972972973
scalar RSUExampleScenario.node[0].veinsmobility 	startTime 	0.1
scalar RSUExampleScenario.node[0].veinsmobility 	totalTime 	449.9
scalar RSUExampleScenario.node[0].veinsmobility 	stopTime 	450
scalar RSUExampleScenario.node[0].veinsmobility 	minSpeed 	0
scalar RSUExampleScenario.node[0].veinsmobility 	maxSpeed 	13.999988164795
scalar RSUExampleScenario.node[0].veinsmobility 	totalDistance 	3133.113239289
scalar RSUExampleScenario.node[0].veinsmobility 	totalCO2Emission 	838.41598869336
scalar RSUExampleScenario.node[1].appl 	meanClusterNodes 	0
scalar RSUExampleScenario.node[1].appl 	meanClusterHeadUtility 	0
scalar RSUExampleScenario.node[1].appl 	NumberofCH 	0.21621621621622
scalar RSUExampleScenario.node[1].appl 	NumberofON 	0
scalar RSUExampleScenario.node[1].appl 	NumberofFN 	0.78378378378378
scalar RSUExampleScenario.node[1].veinsmobility 	startTime 	2.5
scalar RSUExampleScenario.node[1].veinsmobility 	totalTime 	447.5
scalar RSUExampleScenario.node[1].veinsmobility 	stopTime 	450
scalar RSUExampleScenario.node[1].veinsmobility 	minSpeed 	0
scalar RSUExampleScenario.node[1].veinsmobility 	maxSpeed 	13.999973553864
scalar RSUExampleScenario.node[1].veinsmobility 	totalDistance 	3080.3203389919
scalar RSUExampleScenario.node[1].veinsmobility 	totalCO2Emission 	830.32350895626
scalar RSUExampleScenario.node[10].appl 	meanClusterNodes 	0
scalar RSUExampleScenario.node[10].appl 	meanClusterHeadUtility 	0
scalar RSUExampleScenario.node[10].appl 	NumberofCH 	0.27027027027027
scalar RSUExampleScenario.node[10].appl 	NumberofON 	0
scalar RSUExampleScenario.node[10].appl 	NumberofFN 	0.72972972972973
scalar RSUExampleScenario.node[10].veinsmobility 	startTime 	24.2
scalar RSUExampleScenario.node[10].veinsmobility 	totalTime 	425.8
scalar RSUExampleScenario.node[10].veinsmobility 	stopTime 	450
scalar RSUExampleScenario.node[10].veinsmobility 	minSpeed 	0
scalar RSUExampleScenario.node[10].veinsmobility 	maxSpeed 	13.999930267045
scalar RSUExampleScenario.node[10].veinsmobility 	totalDistance 	2787.1955194728
scalar RSUExampleScenario.node[10].veinsmobility 	totalCO2Emission 	759.12589325627
scalar RSUExampleScenario.node[11].appl 	meanClusterNodes 	0
scalar RSUExampleScenario.node[11].appl 	meanClusterHeadUtility 	0
scalar RSUExampleScenario.node[11].appl 	NumberofCH 	0.24324324324324
scalar RSUExampleScenario.node[11].appl 	NumberofON 	0
scalar RSUExampleScenario.node[11].appl 	NumberofFN 	0.75675675675676
scalar RSUExampleScenario.node[11].veinsmobility 	startTime 	26.6
scalar RSUExampleScenario.node[11].veinsmobility 	totalTime 	423.4
scalar RSUExampleScenario.node[11].veinsmobility 	stopTime 	450
scalar RSUExampleScenario.node[11].veinsmobility 	minSpeed 	0
scalar RSUExampleScenario.node[11].veinsmobility 	maxSpeed 	13.999788701779
scalar RSUExampleScenario.node[11].veinsmobility 	totalDistance 	2756.0637182117
scalar RSUExampleScenario.node[11].veinsmobility 	totalCO2Emission 	753.10654235731
scalar RSUExampleScenario.node[12].appl 	meanClusterNodes 	0
scalar RSUExampleScenario.node[12].appl 	meanClusterHeadUtility 	0
scalar RSUExampleScenario.node[12].appl 	NumberofCH 	0.24324324324324
scalar RSUExampleScenario.node[12].appl 	NumberofON 	0
scalar RSUExampleScenario.node[12].appl 	NumberofFN 	0.75675675675676
scalar RSUExampleScenario.node[12].veinsmobility 	startTime 	29
scalar RSUExampleScenario.node[12].veinsmobility 	totalTime 	421
scalar RSUExampleScenario.node[12].veinsmobility 	stopTime 	450
scalar RSUExampleScenario.node[12].veinsmobility 	minSpeed 	0
scalar RSUExampleScenario.node[12].veinsmobility 	maxSpeed 	13.9999780453
scalar RSUExampleScenario.node[12].veinsmobility 	totalDistance 	2717.0068535287
scalar RSUExampleScenario.node[12].veinsmobility 	totalCO2Emission 	750.96670293324
scalar RSUExampleScenario.node[13].appl 	meanClusterNodes 	0
scalar RSUExampleScenario.node[13].appl 	meanClusterHeadUtility 	0
scalar RSUExampleScenario.node[13].appl 	NumberofCH 	0.27027027027027
scalar RSUExampleScenario.node[13].appl 	NumberofON 	0
scalar RSUExampleScenario.node[13].appl 	NumberofFN 	0.72972972972973
scalar RSUExampleScenario.node[13].veinsmobility 	startTime 	31.4
scalar RSUExampleScenario.node[13].veinsmobility 	totalTime 	418.6
scalar RSUExampleScenario.node[13].veinsmobility 	stopTime 	450
scalar RSUExampleScenario.node[13].veinsmobility 	minSpeed 	0
scalar RSUExampleScenario.node[13].veinsmobility 	maxSpeed 	13.999817603889
scalar RSUExampleScenario.node[13].veinsmobility 	totalDistance 	2683.9210516037
scalar RSUExampleScenario.node[13].veinsmobility 	totalCO2Emission 	737.63558954404
scalar RSUExampleScenario.node[14].appl 	meanClusterNodes 	0
scalar RSUExampleScenario.node[14].appl 	meanClusterHeadUtility 	0
scalar RSUExampleScenario.node[14].appl 	NumberofCH 	0.27027027027027
scalar RSUExampleScenario.node[14].appl 	NumberofON 	0
scalar RSUExampleScenario.node[14].appl 	NumberofFN 	0.72972972972973
scalar RSUExampleScenario.node[14].veinsmobility 	startTime 	33.8
scalar RSUExampleScenario.node[14].veinsmobility 	totalTime 	416.2
scalar RSUExampleScenario.node[14].veinsmobility 	stopTime 	450
scalar RSUExampleScenario.node[14].veinsmobility 	minSpeed 	0
scalar RSUExampleScenario.node[14].veinsmobility 	maxSpeed 	13.999934249131
scalar RSUExampleScenario.node[14].veinsmobility 	totalDistance 	2647.1807964561
scalar RSUExampleScenario.node[14].veinsmobility 	totalCO2Emission 	735.97214158116
scalar RSUExampleScenario.node[15].appl 	meanClusterNodes 	0
scalar RSUExampleScenario.node[15].appl 	meanClusterHeadUtility 	0
scalar RSUExampleScenario.node[15].appl 	NumberofCH 	0.27027027027027
scalar RSUExampleScenario.node[15].appl 	NumberofON 	0
scalar RSUExampleScenario.node[15].appl 	NumberofFN 	0.72972972972973
scalar RSUExampleScenario.node[15].veinsmobility 	startTime 	36.2
scalar RSUExampleScenario.node[15].veinsmobility 	totalTime 	413.8
scalar RSUExampleScenario.node[15].veinsmobility 	stopTime 	450
scalar RSUExampleScenario.node[15].veinsmobility 	minSpeed 	0
scalar RSUExampleScenario.node[15].veinsmobility 	maxSpeed 	13.999855867585
scalar RSUExampleScenario.node[15].veinsmobility 	totalDistance 	2616.8153168962
scalar RSUExampleScenario.node[15].veinsmobility 	totalCO2Emission 	730.91374646161
scalar RSUExampleScenario.node[16].appl 	meanClusterNodes 	0
scalar RSUExampleScenario.node[16].appl 	meanClusterHeadUtility 	0
scalar RSUExampleScenario.node[16].appl 	NumberofCH 	0.24324324324324
scalar RSUExampleScenario.node[16].appl 	NumberofON 	0
scalar RSUExampleScenario.node[16].appl 	NumberofFN 	0.75675675675676
scalar RSUExampleScenario.node[16].veinsmobility 	startTime 	38.6
scalar RSUExampleScenario.node[16].veinsmobility 	totalTime 	411.4
scalar RSUExampleScenario.node[16].veinsmobility 	stopTime 	450
scalar RSUExampleScenario.node[16].veinsmobility 	minSpeed 	0
scalar RSUExampleScenario.node[16].veinsmobility 	maxSpeed 	13.999929557352
scalar RSUExampleScenario.node[16].veinsmobility 	totalDistance 	2579.3299730107
scalar RSUExampleScenario.node[16].veinsmobility 	totalCO2Emission 	723.38567341883
scalar RSUExampleScenario.node[17].appl 	meanClusterNodes 	0
scalar RSUExampleScenario.node[17].appl 	meanClusterHeadUtility 	0
scalar RSUExampleScenario.node[17].appl 	NumberofCH 	0.27027027027027
scalar RSUExampleScenario.node[17].appl 	NumberofON 	0
scalar RSUExampleScenario.node[17].appl 	NumberofFN 	0.72972972972973
scalar RSUExampleScenario.node[17].veinsmobility 	startTime 	41
scalar RSUExampleScenario.node[17].veinsmobility 	totalTime 	409
scalar RSUExampleScenario.node[17].veinsmobility 	stopTime 	450
scalar RSUExampleScenario.node[17].veinsmobility 	minSpeed 	0
scalar RSUExampleScenario.node[17].veinsmobility 	maxSpeed 	13.999974588908
scalar RSUExampleScenario.node[17].veinsmobility 	totalDistance 	2544.1254949085
scalar RSUExampleScenario.node[17].veinsmobility 	totalCO2Emission 	719.12646083961
scalar RSUExampleScenario.node[18].appl 	meanClusterNodes 	0
scalar RSUExampleScenario.node[18].appl 	meanClusterHeadUtility 	0
scalar RSUExampleScenario.node[18].appl 	NumberofCH 	0.27027027027027
scalar RSUExampleScenario.node[18].appl 	NumberofON 	0
scalar RSUExampleScenario.node[18].appl 	NumberofFN 	0.72972972972973
scalar RSUExampleScenario.node[18].veinsmobility 	startTime 	43.4
scalar RSUExampleScenario.node[18].veinsmobility 	totalTime 	406.6
scalar RSUExampleScenario.node[18].veinsmobility 	stopTime 	450
scalar RSUExampleScenario.node[18].veinsmobility 	minSpeed 	0
scalar RSUExampleScenario.node[18].veinsmobility 	maxSpeed 	13.999959442718
scalar RSUExampleScenario.node[18].veinsmobility 	totalDistance 	2504.9371002685
scalar RSUExampleScenario.node[18].veinsmobility 	totalCO2Emission 	715.65473973144
scalar RSUExampleScenario.node[19].appl 	meanClusterNodes 	0
scalar RSUExampleScenario.node[19].appl 	meanClusterHeadUtility 	0
scalar RSUExampleScenario.node[19].appl 	NumberofCH 	0.24324324324324
scalar RSUExampleScenario.node[19].appl 	NumberofON 	0
scalar RSUExampleScenario.node[19].appl 	NumberofFN 	0.75675675675676
scalar RSUExampleScenario.node[19].veinsmobility 	startTime 	45.8
scalar RSUExampleScenario.node[19].veinsmobility 	totalTime 	404.2
scalar RSUExampleScenario.node[19].veinsmobility 	stopTime 	450
scalar RSUExampleScenario.node[19].veinsmobility 	minSpeed 	0
scalar RSUExampleScenario.node[19].veinsmobility 	maxSpeed 	13.999999385923
scalar RSUExampleScenario.node[19].veinsmobility 	totalDistance 	2475.0711167491
scalar RSUExampleScenario.node[19].veinsmobility 	totalCO2Emission 	707.89699662297
scalar RSUExampleScenario.node[2].appl 	meanClusterNodes 	0
scalar RSUExampleScenario.node[2].appl 	meanClusterHeadUtility 	0
scalar RSUExampleScenario.node[2].appl 	NumberofCH 	0.27027027027027
scalar RSUExampleScenario.node[2].appl 	NumberofON 	0
scalar RSUExampleScenario.node[2].appl 	NumberofFN 	0.72972972972973
scalar RSUExampleScenario.node[2].veinsmobility 	startTime 	4.9
scalar RSUExampleScenario.node[2].veinsmobility 	totalTime 	445.1
scalar RSUExampleScenario.node[2].veinsmobility 	stopTime 	450
scalar RSUExampleScenario.node[2].veinsmobility 	minSpeed 	0
scalar RSUExampleScenario.node[2].veinsmobility 	maxSpeed 	13.999887153481
scalar RSUExampleScenario.node[2].veinsmobility 	totalDistance 	3031.2274150561
scalar RSUExampleScenario.node[2].veinsmobility 	totalCO2Emission 	821.61294491502
scalar RSUExampleScenario.node[20].appl 	meanClusterNodes 	0
scalar RSUExampleScenario.node[20].appl 	meanClusterHeadUtility 	0
scalar RSUExampleScenario.node[20].appl 	NumberofCH 	0.24324324324324
scalar RSUExampleScenario.node[20].appl 	NumberofON 	0
scalar RSUExampleScenario.node[20].appl 	NumberofFN 	0.75675675675676
scalar RSUExampleScenario.node[20].veinsmobility 	startTime 	48.3
scalar RSUExampleScenario.node[20].veinsmobility 	totalTime 	401.7
scalar RSUExampleScenario.node[20].veinsmobility 	stopTime 	450
scalar RSUExampleScenario.node[20].veinsmobility 	minSpeed 	0
scalar RSUExampleScenario.node[20].veinsmobility 	maxSpeed 	13.999960300392
scalar RSUExampleScenario.node[20].veinsmobility 	totalDistance 	2436.8008206712
scalar RSUExampleScenario.node[20].veinsmobility 	totalCO2Emission 	700.47148720479
scalar RSUExampleScenario.node[21].appl 	meanClusterNodes 	0
scalar RSUExampleScenario.node[21].appl 	meanClusterHeadUtility 	0
scalar RSUExampleScenario.node[21].appl 	NumberofCH 	0.24324324324324
scalar RSUExampleScenario.node[21].appl 	NumberofON 	0
scalar RSUExampleScenario.node[21].appl 	NumberofFN 	0.75675675675676
scalar RSUExampleScenario.node[21].veinsmobility 	startTime 	50.7
scalar RSUExampleScenario.node[21].veinsmobility 	totalTime 	399.3
scalar RSUExampleScenario.node[21].veinsmobility 	stopTime 	450
scalar RSUExampleScenario.node[21].veinsmobility 	minSpeed 	0
scalar RSUExampleScenario.node[21].veinsmobility 	maxSpeed 	13.999974256384
scalar RSUExampleScenario.node[21].veinsmobility 	totalDistance 	2407.1788652539
scalar RSUExampleScenario.node[21].veinsmobility 	totalCO2Emission 	693.98003682244
scalar RSUExampleScenario.node[22].appl 	meanClusterNodes 	0
scalar RSUExampleScenario.node[22].appl 	meanClusterHeadUtility 	0
scalar RSUExampleScenario.node[22].appl 	NumberofCH 	0.27027027027027
scalar RSUExampleScenario.node[22].appl 	NumberofON 	0
scalar RSUExampleScenario.node[22].appl 	NumberofFN 	0.72972972972973
scalar RSUExampleScenario.node[22].veinsmobility 	startTime 	53.1
scalar RSUExampleScenario.node[22].veinsmobility 	totalTime 	396.9
scalar RSUExampleScenario.node[22].veinsmobility 	stopTime 	450
scalar RSUExampleScenario.node[22].veinsmobility 	minSpeed 	0
scalar RSUExampleScenario.node[22].veinsmobility 	maxSpeed 	13.999790568829
scalar RSUExampleScenario.node[22].veinsmobility 	totalDistance 	2370.7305701762
scalar RSUExampleScenario.node[22].veinsmobility 	totalCO2Emission 	688.43277059846
scalar RSUExampleScenario.node[23].appl 	meanClusterNodes 	0
scalar RSUExampleScenario.node[23].appl 	meanClusterHeadUtility 	0
scalar RSUExampleScenario.node[23].appl 	NumberofCH 	0.27027027027027
scalar RSUExampleScenario.node[23].appl 	NumberofON 	0
scalar RSUExampleScenario.node[23].appl 	NumberofFN 	0.72972972972973
scalar RSUExampleScenario.node[23].veinsmobility 	startTime 	55.5
scalar RSUExampleScenario.node[23].veinsmobility 	totalTime 	394.5
scalar RSUExampleScenario.node[23].veinsmobility 	stopTime 	450
scalar RSUExampleScenario.node[23].veinsmobility 	minSpeed 	0
scalar RSUExampleScenario.node[23].veinsmobility 	maxSpeed 	13.999992170641
scalar RSUExampleScenario.node[23].veinsmobility 	totalDistance 	2338.7224957123
scalar RSUExampleScenario.node[23].veinsmobility 	totalCO2Emission 	682.18553315188
scalar RSUExampleScenario.node[24].appl 	meanClusterNodes 	0
scalar RSUExampleScenario.node[24].appl 	meanClusterHeadUtility 	0
scalar RSUExampleScenario.node[24].appl 	NumberofCH 	0.27027027027027
scalar RSUExampleScenario.node[24].appl 	NumberofON 	0
scalar RSUExampleScenario.node[24].appl 	NumberofFN 	0.72972972972973
scalar RSUExampleScenario.node[24].veinsmobility 	startTime 	57.9
scalar RSUExampleScenario.node[24].veinsmobility 	totalTime 	392.1
scalar RSUExampleScenario.node[24].veinsmobility 	stopTime 	450
scalar RSUExampleScenario.node[24].veinsmobility 	minSpeed 	0
scalar RSUExampleScenario.node[24].veinsmobility 	maxSpeed 	13.999965396794
scalar RSUExampleScenario.node[24].veinsmobility 	totalDistance 	2302.1713006703
scalar RSUExampleScenario.node[24].veinsmobility 	totalCO2Emission 	682.16084491376
scalar RSUExampleScenario.node[25].appl 	meanClusterNodes 	0
scalar RSUExampleScenario.node[25].appl 	meanClusterHeadUtility 	0
scalar RSUExampleScenario.node[25].appl 	NumberofCH 	0.24324324324324
scalar RSUExampleScenario.node[25].appl 	NumberofON 	0
scalar RSUExampleScenario.node[25].appl 	NumberofFN 	0.75675675675676
scalar RSUExampleScenario.node[25].veinsmobility 	startTime 	60.3
scalar RSUExampleScenario.node[25].veinsmobility 	totalTime 	389.7
scalar RSUExampleScenario.node[25].veinsmobility 	stopTime 	450
scalar RSUExampleScenario.node[25].veinsmobility 	minSpeed 	0
scalar RSUExampleScenario.node[25].veinsmobility 	maxSpeed 	13.999661990283
scalar RSUExampleScenario.node[25].veinsmobility 	totalDistance 	2271.7004526953
scalar RSUExampleScenario.node[25].veinsmobility 	totalCO2Emission 	672.11242426171
scalar RSUExampleScenario.node[26].appl 	meanClusterNodes 	0
scalar RSUExampleScenario.node[26].appl 	meanClusterHeadUtility 	0
scalar RSUExampleScenario.node[26].appl 	NumberofCH 	0.27027027027027
scalar RSUExampleScenario.node[26].appl 	NumberofON 	0
scalar RSUExampleScenario.node[26].appl 	NumberofFN 	0.72972972972973
scalar RSUExampleScenario.node[26].veinsmobility 	startTime 	62.7
scalar RSUExampleScenario.node[26].veinsmobility 	totalTime 	387.3
scalar RSUExampleScenario.node[26].veinsmobility 	stopTime 	450
scalar RSUExampleScenario.node[26].veinsmobility 	minSpeed 	0
scalar RSUExampleScenario.node[26].veinsmobility 	maxSpeed 	13.999888263226
scalar RSUExampleScenario.node[26].veinsmobility 	totalDistance 	2235.0841531625
scalar RSUExampleScenario.node[26].veinsmobility 	totalCO2Emission 	665.77162201979
scalar RSUExampleScenario.node[27].appl 	meanClusterNodes 	0
scalar RSUExampleScenario.node[27].appl 	meanClusterHeadUtility 	0
scalar RSUExampleScenario.node[27].appl 	NumberofCH 	0.27027027027027
scalar RSUExampleScenario.node[27].appl 	NumberofON 	0
scalar RSUExampleScenario.node[27].appl 	NumberofFN 	0.72972972972973
scalar RSUExampleScenario.node[27].veinsmobility 	startTime 	65.1
scalar RSUExampleScenario.node[27].veinsmobility 	totalTime 	384.9
scalar RSUExampleScenario.node[27].veinsmobility 	stopTime 	450
scalar RSUExampleScenario.node[27].veinsmobility 	minSpeed 	0
scalar RSUExampleScenario.node[27].veinsmobility 	maxSpeed 	13.999892027806
scalar RSUExampleScenario.node[27].veinsmobility 	totalDistance 	2206.2429500642
scalar RSUExampleScenario.node[27].veinsmobility 	totalCO2Emission 	660.01961052453
scalar RSUExampleScenario.node[28].appl 	meanClusterNodes 	0
scalar RSUExampleScenario.node[28].appl 	meanClusterHeadUtility 	0
scalar RSUExampleScenario.node[28].appl 	NumberofCH 	0.27027027027027
scalar RSUExampleScenario.node[28].appl 	NumberofON 	0
scalar RSUExampleScenario.node[28].appl 	NumberofFN 	0.72972972972973
scalar RSUExampleScenario.node[28].veinsmobility 	startTime 	67.5
scalar RSUExampleScenario.node[28].veinsmobility 	totalTime 	382.5
scalar RSUExampleScenario.node[28].veinsmobility 	stopTime 	450
scalar RSUExampleScenario.node[28].veinsmobility 	minSpeed 	0
scalar RSUExampleScenario.node[28].veinsmobility 	maxSpeed 	13.999930315565
scalar RSUExampleScenario.node[28].veinsmobility 	totalDistance 	2169.0828569607
scalar RSUExampleScenario.node[28].veinsmobility 	totalCO2Emission 	655.48126301022
scalar RSUExampleScenario.node[29].appl 	meanClusterNodes 	0
scalar RSUExampleScenario.node[29].appl 	meanClusterHeadUtility 	0
scalar RSUExampleScenario.node[29].appl 	NumberofCH 	0.27027027027027
scalar RSUExampleScenario.node[29].appl 	NumberofON 	0
scalar RSUExampleScenario.node[29].appl 	NumberofFN 	0.72972972972973
scalar RSUExampleScenario.node[29].veinsmobility 	startTime 	69.9
scalar RSUExampleScenario.node[29].veinsmobility 	totalTime 	380.1
scalar RSUExampleScenario.node[29].veinsmobility 	stopTime 	450
scalar RSUExampleScenario.node[29].veinsmobility 	minSpeed 	0
scalar RSUExampleScenario.node[29].veinsmobility 	maxSpeed 	13.999922038633
scalar RSUExampleScenario.node[29].veinsmobility 	totalDistance 	2136.6669726349
scalar RSUExampleScenario.node[29].veinsmobility 	totalCO2Emission 	647.15464273541
scalar RSUExampleScenario.node[3].appl 	meanClusterNodes 	0
scalar RSUExampleScenario.node[3].appl 	meanClusterHeadUtility 	0
scalar RSUExampleScenario.node[3].appl 	NumberofCH 	0.27027027027027
scalar RSUExampleScenario.node[3].appl 	NumberofON 	0
scalar RSUExampleScenario.node[3].appl 	NumberofFN 	0.72972972972973
scalar RSUExampleScenario.node[3].veinsmobility 	startTime 	7.3
scalar RSUExampleScenario.node[3].veinsmobility 	totalTime 	442.7
scalar RSUExampleScenario.node[3].veinsmobility 	stopTime 	450
scalar RSUExampleScenario.node[3].veinsmobility 	minSpeed 	0
scalar RSUExampleScenario.node[3].veinsmobility 	maxSpeed 	13.999933814211
scalar RSUExampleScenario.node[3].veinsmobility 	totalDistance 	2995.0433776666
scalar RSUExampleScenario.node[3].veinsmobility 	totalCO2Emission 	815.50947698138
scalar RSUExampleScenario.node[30].appl 	meanClusterNodes 	0
scalar RSUExampleScenario.node[30].appl 	meanClusterHeadUtility 	0
scalar RSUExampleScenario.node[30].appl 	NumberofCH 	0.21621621621622
scalar RSUExampleScenario.node[30].appl 	NumberofON 	0
scalar RSUExampleScenario.node[30].appl 	NumberofFN 	0.78378378378378
scalar RSUExampleScenario.node[30].veinsmobility 	startTime 	72.4
scalar RSUExampleScenario.node[30].veinsmobility 	totalTime 	377.6
scalar RSUExampleScenario.node[30].veinsmobility 	stopTime 	450
scalar RSUExampleScenario.node[30].veinsmobility 	minSpeed 	0
scalar RSUExampleScenario.node[30].veinsmobility 	maxSpeed 	13.999831121753
scalar RSUExampleScenario.node[30].veinsmobility 	totalDistance 	2101.2634559416
scalar RSUExampleScenario.node[30].veinsmobility 	totalCO2Emission 	644.91171992252
scalar RSUExampleScenario.node[31].appl 	meanClusterNodes 	0
scalar RSUExampleScenario.node[31].appl 	meanClusterHeadUtility 	0
scalar RSUExampleScenario.node[31].appl 	NumberofCH 	0.27027027027027
scalar RSUExampleScenario.node[31].appl 	NumberofON 	0
scalar RSUExampleScenario.node[31].appl 	NumberofFN 	0.72972972972973
scalar RSUExampleScenario.node[31].veinsmobility 	startTime 	74.8
scalar RSUExampleScenario.node[31].veinsmobility 	totalTime 	375.2
scalar RSUExampleScenario.node[31].veinsmobility 	stopTime 	450
scalar RSUExampleScenario.node[31].veinsmobility 	minSpeed 	0
scalar RSUExampleScenario.node[31].veinsmobility 	maxSpeed 	13.99993598836
scalar RSUExampleScenario.node[31].veinsmobility 	totalDistance 	2070.6429868422
scalar RSUExampleScenario.node[31].veinsmobility 	totalCO2Emission 	638.79773657061
scalar RSUExampleScenario.node[32].appl 	meanClusterNodes 	0
scalar RSUExampleScenario.node[32].appl 	meanClusterHeadUtility 	0
scalar RSUExampleScenario.node[32].appl 	NumberofCH 	0.21621621621622
scalar RSUExampleScenario.node[32].appl 	NumberofON 	0
scalar RSUExampleScenario.node[32].appl 	NumberofFN 	0.78378378378378
scalar RSUExampleScenario.node[32].veinsmobility 	startTime 	77.2
scalar RSUExampleScenario.node[32].veinsmobility 	totalTime 	372.8
scalar RSUExampleScenario.node[32].veinsmobility 	stopTime 	450
scalar RSUExampleScenario.node[32].veinsmobility 	minSpeed 	0
scalar RSUExampleScenario.node[32].veinsmobility 	maxSpeed 	13.999989790246
scalar RSUExampleScenario.node[32].veinsmobility 	totalDistance 	2031.6312407958
scalar RSUExampleScenario.node[32].veinsmobility 	totalCO2Emission 	635.82654463933
scalar RSUExampleScenario.node[33].appl 	meanClusterNodes 	0
scalar RSUExampleScenario.node[33].appl 	meanClusterHeadUtility 	0
scalar RSUExampleScenario.node[33].appl 	NumberofCH 	0.27027027027027
scalar RSUExampleScenario.node[33].appl 	NumberofON 	0
scalar RSUExampleScenario.node[33].appl 	NumberofFN 	0.72972972972973
scalar RSUExampleScenario.node[33].veinsmobility 	startTime 	79.6
scalar RSUExampleScenario.node[33].veinsmobility 	totalTime 	370.4
scalar RSUExampleScenario.node[33].veinsmobility 	stopTime 	450
scalar RSUExampleScenario.node[33].veinsmobility 	minSpeed 	0
scalar RSUExampleScenario.node[33].veinsmobility 	maxSpeed 	13.999923966916
scalar RSUExampleScenario.node[33].veinsmobility 	totalDistance 	1999.2707239341
scalar RSUExampleScenario.node[33].veinsmobility 	totalCO2Emission 	625.11386923138
scalar RSUExampleScenario.node[34].appl 	meanClusterNodes 	0
scalar RSUExampleScenario.node[34].appl 	meanClusterHeadUtility 	0
scalar RSUExampleScenario.node[34].appl 	NumberofCH 	0.21621621621622
scalar RSUExampleScenario.node[34].appl 	NumberofON 	0
scalar RSUExampleScenario.node[34].appl 	NumberofFN 	0.78378378378378
scalar RSUExampleScenario.node[34].veinsmobility 	startTime 	82
scalar RSUExampleScenario.node[34].veinsmobility 	totalTime 	368
scalar RSUExampleScenario.node[34].veinsmobility 	stopTime 	450
scalar RSUExampleScenario.node[34].veinsmobility 	minSpeed 	0
scalar RSUExampleScenario.node[34].veinsmobility 	maxSpeed 	13.9998453122
scalar RSUExampleScenario.node[34].veinsmobility 	totalDistance 	1966.4360234168
scalar RSUExampleScenario.node[34].veinsmobility 	totalCO2Emission 	618.49538737439
scalar RSUExampleScenario.node[35].appl 	meanClusterNodes 	0
scalar RSUExampleScenario.node[35].appl 	meanClusterHeadUtility 	0
scalar RSUExampleScenario.node[35].appl 	NumberofCH 	0.18918918918919
scalar RSUExampleScenario.node[35].appl 	NumberofON 	0
scalar RSUExampleScenario.node[35].appl 	NumberofFN 	0.81081081081081
scalar RSUExampleScenario.node[35].veinsmobility 	startTime 	84.4
scalar RSUExampleScenario.node[35].veinsmobility 	totalTime 	365.6
scalar RSUExampleScenario.node[35].veinsmobility 	stopTime 	450
scalar RSUExampleScenario.node[35].veinsmobility 	minSpeed 	0
scalar RSUExampleScenario.node[35].veinsmobility 	maxSpeed 	13.999910764566
scalar RSUExampleScenario.node[35].veinsmobility 	totalDistance 	1932.7695411429
scalar RSUExampleScenario.node[35].veinsmobility 	totalCO2Emission 	616.59108945462
scalar RSUExampleScenario.node[36].appl 	meanClusterNodes 	0
scalar RSUExampleScenario.node[36].appl 	meanClusterHeadUtility 	0
scalar RSUExampleScenario.node[36].appl 	NumberofCH 	0.27027027027027
scalar RSUExampleScenario.node[36].appl 	NumberofON 	0
scalar RSUExampleScenario.node[36].appl 	NumberofFN 	0.72972972972973
scalar RSUExampleScenario.node[36].veinsmobility 	startTime 	86.8
scalar RSUExampleScenario.node[36].veinsmobility 	totalTime 	363.2
scalar RSUExampleScenario.node[36].veinsmobility 	stopTime 	450
scalar RSUExampleScenario.node[36].veinsmobility 	minSpeed 	0
scalar RSUExampleScenario.node[36].veinsmobility 	maxSpeed 	13.999988018631
scalar RSUExampleScenario.node[36].veinsmobility 	totalDistance 	1899.7350252863
scalar RSUExampleScenario.node[36].veinsmobility 	totalCO2Emission 	611.02726469093
scalar RSUExampleScenario.node[37].appl 	meanClusterNodes 	0
scalar RSUExampleScenario.node[37].appl 	meanClusterHeadUtility 	0
scalar RSUExampleScenario.node[37].appl 	NumberofCH 	0.27027027027027
scalar RSUExampleScenario.node[37].appl 	NumberofON 	0
scalar RSUExampleScenario.node[37].appl 	NumberofFN 	0.72972972972973
scalar RSUExampleScenario.node[37].veinsmobility 	startTime 	89.2
scalar RSUExampleScenario.node[37].veinsmobility 	totalTime 	360.8
scalar RSUExampleScenario.node[37].veinsmobility 	stopTime 	450
scalar RSUExampleScenario.node[37].veinsmobility 	minSpeed 	0
scalar RSUExampleScenario.node[37].veinsmobility 	maxSpeed 	13.9996908028
scalar RSUExampleScenario.node[37].veinsmobility 	totalDistance 	1864.2718511669
scalar RSUExampleScenario.node[37].veinsmobility 	totalCO2Emission 	605.48481591202
scalar RSUExampleScenario.node[38].appl 	meanClusterNodes 	0
scalar RSUExampleScenario.node[38].appl 	meanClusterHeadUtility 	0
scalar RSUExampleScenario.node[38].appl 	NumberofCH 	0.21621621621622
scalar RSUExampleScenario.node[38].appl 	NumberofON 	0
scalar RSUExampleScenario.node[38].appl 	NumberofFN 	0.78378378378378
scalar RSUExampleScenario.node[38].veinsmobility 	startTime 	91.6
scalar RSUExampleScenario.node[38].veinsmobility 	totalTime 	358.4
scalar RSUExampleScenario.node[38].veinsmobility 	stopTime 	450
scalar RSUExampleScenario.node[38].veinsmobility 	minSpeed 	0
scalar RSUExampleScenario.node[38].veinsmobility 	maxSpeed 	13.999837083607
scalar RSUExampleScenario.node[38].veinsmobility 	totalDistance 	1831.5615345112
scalar RSUExampleScenario.node[38].veinsmobility 	totalCO2Emission 	600.09742328017
scalar RSUExampleScenario.node[39].appl 	meanClusterNodes 	0
scalar RSUExampleScenario.node[39].appl 	meanClusterHeadUtility 	0
scalar RSUExampleScenario.node[39].appl 	NumberofCH 	0.27027027027027
scalar RSUExampleScenario.node[39].appl 	NumberofON 	0
scalar RSUExampleScenario.node[39].appl 	NumberofFN 	0.72972972972973
scalar RSUExampleScenario.node[39].veinsmobility 	startTime 	94
scalar RSUExampleScenario.node[39].veinsmobility 	totalTime 	356
scalar RSUExampleScenario.node[39].veinsmobility 	stopTime 	450
scalar RSUExampleScenario.node[39].veinsmobility 	minSpeed 	0
scalar RSUExampleScenario.node[39].veinsmobility 	maxSpeed 	13.999884115665
scalar RSUExampleScenario.node[39].veinsmobility 	totalDistance 	1795.9977343095
scalar RSUExampleScenario.node[39].veinsmobility 	totalCO2Emission 	594.16331216491
scalar RSUExampleScenario.node[4].appl 	meanClusterNodes 	0
scalar RSUExampleScenario.node[4].appl 	meanClusterHeadUtility 	0
scalar RSUExampleScenario.node[4].appl 	NumberofCH 	0.24324324324324
scalar RSUExampleScenario.node[4].appl 	NumberofON 	0
scalar RSUExampleScenario.node[4].appl 	NumberofFN 	0.75675675675676
scalar RSUExampleScenario.node[4].veinsmobility 	startTime 	9.7
scalar RSUExampleScenario.node[4].veinsmobility 	totalTime 	440.3
scalar RSUExampleScenario.node[4].veinsmobility 	stopTime 	450
scalar RSUExampleScenario.node[4].veinsmobility 	minSpeed 	0
scalar RSUExampleScenario.node[4].veinsmobility 	maxSpeed 	13.999933297446
scalar RSUExampleScenario.node[4].veinsmobility 	totalDistance 	2946.3796092132
scalar RSUExampleScenario.node[4].veinsmobility 	totalCO2Emission 	795.92753114146
scalar RSUExampleScenario.node[40].appl 	meanClusterNodes 	0
scalar RSUExampleScenario.node[40].appl 	meanClusterHeadUtility 	0
scalar RSUExampleScenario.node[40].appl 	NumberofCH 	0.21621621621622
scalar RSUExampleScenario.node[40].appl 	NumberofON 	0
scalar RSUExampleScenario.node[40].appl 	NumberofFN 	0.78378378378378
scalar RSUExampleScenario.node[40].veinsmobility 	startTime 	96.5
scalar RSUExampleScenario.node[40].veinsmobility 	totalTime 	353.5
scalar RSUExampleScenario.node[40].veinsmobility 	stopTime 	450
scalar RSUExampleScenario.node[40].veinsmobility 	minSpeed 	0
scalar RSUExampleScenario.node[40].veinsmobility 	maxSpeed 	13.99984493824
scalar RSUExampleScenario.node[40].veinsmobility 	totalDistance 	1763.6974696742
scalar RSUExampleScenario.node[40].veinsmobility 	totalCO2Emission 	587.9493079419
scalar RSUExampleScenario.node[41].appl 	meanClusterNodes 	0
scalar RSUExampleScenario.node[41].appl 	meanClusterHeadUtility 	0
scalar RSUExampleScenario.node[41].appl 	NumberofCH 	0.21621621621622
scalar RSUExampleScenario.node[41].appl 	NumberofON 	0
scalar RSUExampleScenario.node[41].appl 	NumberofFN 	0.78378378378378
scalar RSUExampleScenario.node[41].veinsmobility 	startTime 	98.9
scalar RSUExampleScenario.node[41].veinsmobility 	totalTime 	351.1
scalar RSUExampleScenario.node[41].veinsmobility 	stopTime 	450
scalar RSUExampleScenario.node[41].veinsmobility 	minSpeed 	0
scalar RSUExampleScenario.node[41].veinsmobility 	maxSpeed 	13.999918465558
scalar RSUExampleScenario.node[41].veinsmobility 	totalDistance 	1730.8620354
scalar RSUExampleScenario.node[41].veinsmobility 	totalCO2Emission 	581.49634656366
scalar RSUExampleScenario.node[42].appl 	meanClusterNodes 	0
scalar RSUExampleScenario.node[42].appl 	meanClusterHeadUtility 	0
scalar RSUExampleScenario.node[42].appl 	NumberofCH 	0.21621621621622
scalar RSUExampleScenario.node[42].appl 	NumberofON 	0
scalar RSUExampleScenario.node[42].appl 	NumberofFN 	0.78378378378378
scalar RSUExampleScenario.node[42].veinsmobility 	startTime 	101.3
scalar RSUExampleScenario.node[42].veinsmobility 	totalTime 	348.7
scalar RSUExampleScenario.node[42].veinsmobility 	stopTime 	450
scalar RSUExampleScenario.node[42].veinsmobility 	minSpeed 	0
scalar RSUExampleScenario.node[42].veinsmobility 	maxSpeed 	13.999911151996
scalar RSUExampleScenario.node[42].veinsmobility 	totalDistance 	1697.3757260987
scalar RSUExampleScenario.node[42].veinsmobility 	totalCO2Emission 	575.64290020694
scalar RSUExampleScenario.node[43].appl 	meanClusterNodes 	0
scalar RSUExampleScenario.node[43].appl 	meanClusterHeadUtility 	0
scalar RSUExampleScenario.node[43].appl 	NumberofCH 	0.27027027027027
scalar RSUExampleScenario.node[43].appl 	NumberofON 	0
scalar RSUExampleScenario.node[43].appl 	NumberofFN 	0.72972972972973
scalar RSUExampleScenario.node[43].veinsmobility 	startTime 	103.7
scalar RSUExampleScenario.node[43].veinsmobility 	totalTime 	346.3
scalar RSUExampleScenario.node[43].veinsmobility 	stopTime 	450
scalar RSUExampleScenario.node[43].veinsmobility 	minSpeed 	0
scalar RSUExampleScenario.node[43].veinsmobility 	maxSpeed 	13.999821609766
scalar RSUExampleScenario.node[43].veinsmobility 	totalDistance 	1662.0643944497
scalar RSUExampleScenario.node[43].veinsmobility 	totalCO2Emission 	567.22521211983
scalar RSUExampleScenario.node[44].appl 	meanClusterNodes 	0
scalar RSUExampleScenario.node[44].appl 	meanClusterHeadUtility 	0
scalar RSUExampleScenario.node[44].appl 	NumberofCH 	0.21621621621622
scalar RSUExampleScenario.node[44].appl 	NumberofON 	0
scalar RSUExampleScenario.node[44].appl 	NumberofFN 	0.78378378378378
scalar RSUExampleScenario.node[44].veinsmobility 	startTime 	106.1
scalar RSUExampleScenario.node[44].veinsmobility 	totalTime 	343.9
scalar RSUExampleScenario.node[44].veinsmobility 	stopTime 	450
scalar RSUExampleScenario.node[44].veinsmobility 	minSpeed 	0
scalar RSUExampleScenario.node[44].veinsmobility 	maxSpeed 	13.999953258606
scalar RSUExampleScenario.node[44].veinsmobility 	totalDistance 	1628.1856370854
scalar RSUExampleScenario.node[44].veinsmobility 	totalCO2Emission 	565.20015158337
scalar RSUExampleScenario.node[45].appl 	meanClusterNodes 	0
scalar RSUExampleScenario.node[45].appl 	meanClusterHeadUtility 	0
scalar RSUExampleScenario.node[45].appl 	NumberofCH 	0.24324324324324
scalar RSUExampleScenario.node[45].appl 	NumberofON 	0
scalar RSUExampleScenario.node[45].appl 	NumberofFN 	0.75675675675676
scalar RSUExampleScenario.node[45].veinsmobility 	startTime 	108.5
scalar RSUExampleScenario.node[45].veinsmobility 	totalTime 	341.5
scalar RSUExampleScenario.node[45].veinsmobility 	stopTime 	450
scalar RSUExampleScenario.node[45].veinsmobility 	minSpeed 	0
scalar RSUExampleScenario.node[45].veinsmobility 	maxSpeed 	13.999981208909
scalar RSUExampleScenario.node[45].veinsmobility 	totalDistance 	1594.9881041722
scalar RSUExampleScenario.node[45].veinsmobility 	totalCO2Emission 	559.29652520993
scalar RSUExampleScenario.node[46].appl 	meanClusterNodes 	0
scalar RSUExampleScenario.node[46].appl 	meanClusterHeadUtility 	0
scalar RSUExampleScenario.node[46].appl 	NumberofCH 	0.27027027027027
scalar RSUExampleScenario.node[46].appl 	NumberofON 	0
scalar RSUExampleScenario.node[46].appl 	NumberofFN 	0.72972972972973
scalar RSUExampleScenario.node[46].veinsmobility 	startTime 	110.9
scalar RSUExampleScenario.node[46].veinsmobility 	totalTime 	339.1
scalar RSUExampleScenario.node[46].veinsmobility 	stopTime 	450
scalar RSUExampleScenario.node[46].veinsmobility 	minSpeed 	0
scalar RSUExampleScenario.node[46].veinsmobility 	maxSpeed 	13.999973776818
scalar RSUExampleScenario.node[46].veinsmobility 	totalDistance 	1562.2786140269
scalar RSUExampleScenario.node[46].veinsmobility 	totalCO2Emission 	554.04296360277
scalar RSUExampleScenario.node[47].appl 	meanClusterNodes 	0
scalar RSUExampleScenario.node[47].appl 	meanClusterHeadUtility 	0
scalar RSUExampleScenario.node[47].appl 	NumberofCH 	0.21621621621622
scalar RSUExampleScenario.node[47].appl 	NumberofON 	0
scalar RSUExampleScenario.node[47].appl 	NumberofFN 	0.78378378378378
scalar RSUExampleScenario.node[47].veinsmobility 	startTime 	113.3
scalar RSUExampleScenario.node[47].veinsmobility 	totalTime 	336.7
scalar RSUExampleScenario.node[47].veinsmobility 	stopTime 	450
scalar RSUExampleScenario.node[47].veinsmobility 	minSpeed 	0
scalar RSUExampleScenario.node[47].veinsmobility 	maxSpeed 	13.999396389725
scalar RSUExampleScenario.node[47].veinsmobility 	totalDistance 	1526.9163479469
scalar RSUExampleScenario.node[47].veinsmobility 	totalCO2Emission 	549.66470651871
scalar RSUExampleScenario.node[48].appl 	meanClusterNodes 	0
scalar RSUExampleScenario.node[48].appl 	meanClusterHeadUtility 	0
scalar RSUExampleScenario.node[48].appl 	NumberofCH 	0.27027027027027
scalar RSUExampleScenario.node[48].appl 	NumberofON 	0
scalar RSUExampleScenario.node[48].appl 	NumberofFN 	0.72972972972973
scalar RSUExampleScenario.node[48].veinsmobility 	startTime 	115.7
scalar RSUExampleScenario.node[48].veinsmobility 	totalTime 	334.3
scalar RSUExampleScenario.node[48].veinsmobility 	stopTime 	450
scalar RSUExampleScenario.node[48].veinsmobility 	minSpeed 	0
scalar RSUExampleScenario.node[48].veinsmobility 	maxSpeed 	13.999947501575
scalar RSUExampleScenario.node[48].veinsmobility 	totalDistance 	1494.1504331208
scalar RSUExampleScenario.node[48].veinsmobility 	totalCO2Emission 	543.78645126651
scalar RSUExampleScenario.node[49].appl 	meanClusterNodes 	0
scalar RSUExampleScenario.node[49].appl 	meanClusterHeadUtility 	0
scalar RSUExampleScenario.node[49].appl 	NumberofCH 	0.24324324324324
scalar RSUExampleScenario.node[49].appl 	NumberofON 	0
scalar RSUExampleScenario.node[49].appl 	NumberofFN 	0.75675675675676
scalar RSUExampleScenario.node[49].veinsmobility 	startTime 	118.1
scalar RSUExampleScenario.node[49].veinsmobility 	totalTime 	331.9
scalar RSUExampleScenario.node[49].veinsmobility 	stopTime 	450
scalar RSUExampleScenario.node[49].veinsmobility 	minSpeed 	0
scalar RSUExampleScenario.node[49].veinsmobility 	maxSpeed 	13.999751014325
scalar RSUExampleScenario.node[49].veinsmobility 	totalDistance 	1460.9794022024
scalar RSUExampleScenario.node[49].veinsmobility 	totalCO2Emission 	536.79790046773
scalar RSUExampleScenario.node[5].appl 	meanClusterNodes 	0
scalar RSUExampleScenario.node[5].appl 	meanClusterHeadUtility 	0
scalar RSUExampleScenario.node[5].appl 	NumberofCH 	0.21621621621622
scalar RSUExampleScenario.node[5].appl 	NumberofON 	0
scalar RSUExampleScenario.node[5].appl 	NumberofFN 	0.78378378378378
scalar RSUExampleScenario.node[5].veinsmobility 	startTime 	12.1
scalar RSUExampleScenario.node[5].veinsmobility 	totalTime 	437.9
scalar RSUExampleScenario.node[5].veinsmobility 	stopTime 	450
scalar RSUExampleScenario.node[5].veinsmobility 	minSpeed 	0
scalar RSUExampleScenario.node[5].veinsmobility 	maxSpeed 	13.999997989631
scalar RSUExampleScenario.node[5].veinsmobility 	totalDistance 	2917.3100202443
scalar RSUExampleScenario.node[5].veinsmobility 	totalCO2Emission 	784.23462987772
scalar RSUExampleScenario.node[50].appl 	meanClusterNodes 	0
scalar RSUExampleScenario.node[50].appl 	meanClusterHeadUtility 	0
scalar RSUExampleScenario.node[50].appl 	NumberofCH 	0.27027027027027
scalar RSUExampleScenario.node[50].appl 	NumberofON 	0
scalar RSUExampleScenario.node[50].appl 	NumberofFN 	0.72972972972973
scalar RSUExampleScenario.node[50].veinsmobility 	startTime 	120.6
scalar RSUExampleScenario.node[50].veinsmobility 	totalTime 	329.4
scalar RSUExampleScenario.node[50].veinsmobility 	stopTime 	450
scalar RSUExampleScenario.node[50].veinsmobility 	minSpeed 	0
scalar RSUExampleScenario.node[50].veinsmobility 	maxSpeed 	13.999972904827
scalar RSUExampleScenario.node[50].veinsmobility 	totalDistance 	1426.9445671396
scalar RSUExampleScenario.node[50].veinsmobility 	totalCO2Emission 	529.3819273536
scalar RSUExampleScenario.node[51].appl 	meanClusterNodes 	0
scalar RSUExampleScenario.node[51].appl 	meanClusterHeadUtility 	0
scalar RSUExampleScenario.node[51].appl 	NumberofCH 	0.21621621621622
scalar RSUExampleScenario.node[51].appl 	NumberofON 	0
scalar RSUExampleScenario.node[51].appl 	NumberofFN 	0.78378378378378
scalar RSUExampleScenario.node[51].veinsmobility 	startTime 	123
scalar RSUExampleScenario.node[51].veinsmobility 	totalTime 	327
scalar RSUExampleScenario.node[51].veinsmobility 	stopTime 	450
scalar RSUExampleScenario.node[51].veinsmobility 	minSpeed 	0
scalar RSUExampleScenario.node[51].veinsmobility 	maxSpeed 	13.999928319422
scalar RSUExampleScenario.node[51].veinsmobility 	totalDistance 	1392.9957406175
scalar RSUExampleScenario.node[51].veinsmobility 	totalCO2Emission 	527.38277020806
scalar RSUExampleScenario.node[52].appl 	meanClusterNodes 	0
scalar RSUExampleScenario.node[52].appl 	meanClusterHeadUtility 	0
scalar RSUExampleScenario.node[52].appl 	NumberofCH 	0.27027027027027
scalar RSUExampleScenario.node[52].appl 	NumberofON 	0
scalar RSUExampleScenario.node[52].appl 	NumberofFN 	0.72972972972973
scalar RSUExampleScenario.node[52].veinsmobility 	startTime 	125.4
scalar RSUExampleScenario.node[52].veinsmobility 	totalTime 	324.6
scalar RSUExampleScenario.node[52].veinsmobility 	stopTime 	450
scalar RSUExampleScenario.node[52].veinsmobility 	minSpeed 	0
scalar RSUExampleScenario.node[52].veinsmobility 	maxSpeed 	13.999998309745
scalar RSUExampleScenario.node[52].veinsmobility 	totalDistance 	1360.1182262989
scalar RSUExampleScenario.node[52].veinsmobility 	totalCO2Emission 	520.71546748738
scalar RSUExampleScenario.node[53].appl 	meanClusterNodes 	0
scalar RSUExampleScenario.node[53].appl 	meanClusterHeadUtility 	0
scalar RSUExampleScenario.node[53].appl 	NumberofCH 	0.27027027027027
scalar RSUExampleScenario.node[53].appl 	NumberofON 	0
scalar RSUExampleScenario.node[53].appl 	NumberofFN 	0.72972972972973
scalar RSUExampleScenario.node[53].veinsmobility 	startTime 	127.8
scalar RSUExampleScenario.node[53].veinsmobility 	totalTime 	322.2
scalar RSUExampleScenario.node[53].veinsmobility 	stopTime 	450
scalar RSUExampleScenario.node[53].veinsmobility 	minSpeed 	0
scalar RSUExampleScenario.node[53].veinsmobility 	maxSpeed 	13.999932651557
scalar RSUExampleScenario.node[53].veinsmobility 	totalDistance 	1326.3186814378
scalar RSUExampleScenario.node[53].veinsmobility 	totalCO2Emission 	510.36884801359
scalar RSUExampleScenario.node[54].appl 	meanClusterNodes 	0
scalar RSUExampleScenario.node[54].appl 	meanClusterHeadUtility 	0
scalar RSUExampleScenario.node[54].appl 	NumberofCH 	0.27027027027027
scalar RSUExampleScenario.node[54].appl 	NumberofON 	0
scalar RSUExampleScenario.node[54].appl 	NumberofFN 	0.72972972972973
scalar RSUExampleScenario.node[54].veinsmobility 	startTime 	130.2
scalar RSUExampleScenario.node[54].veinsmobility 	totalTime 	319.8
scalar RSUExampleScenario.node[54].veinsmobility 	stopTime 	450
scalar RSUExampleScenario.node[54].veinsmobility 	minSpeed 	0
scalar RSUExampleScenario.node[54].veinsmobility 	maxSpeed 	13.999887241803
scalar RSUExampleScenario.node[54].veinsmobility 	totalDistance 	1294.0789473178
scalar RSUExampleScenario.node[54].veinsmobility 	totalCO2Emission 	508.49447031451
scalar RSUExampleScenario.node[55].appl 	meanClusterNodes 	0
scalar RSUExampleScenario.node[55].appl 	meanClusterHeadUtility 	0
scalar RSUExampleScenario.node[55].appl 	NumberofCH 	0.27027027027027
scalar RSUExampleScenario.node[55].appl 	NumberofON 	0
scalar RSUExampleScenario.node[55].appl 	NumberofFN 	0.72972972972973
scalar RSUExampleScenario.node[55].veinsmobility 	startTime 	132.6
scalar RSUExampleScenario.node[55].veinsmobility 	totalTime 	317.4
scalar RSUExampleScenario.node[55].veinsmobility 	stopTime 	450
scalar RSUExampleScenario.node[55].veinsmobility 	minSpeed 	0
scalar RSUExampleScenario.node[55].veinsmobility 	maxSpeed 	13.999849409729
scalar RSUExampleScenario.node[55].veinsmobility 	totalDistance 	1258.4383062383
scalar RSUExampleScenario.node[55].veinsmobility 	totalCO2Emission 	501.97757772905
scalar RSUExampleScenario.node[56].appl 	meanClusterNodes 	0
scalar RSUExampleScenario.node[56].appl 	meanClusterHeadUtility 	0
scalar RSUExampleScenario.node[56].appl 	NumberofCH 	0.21621621621622
scalar RSUExampleScenario.node[56].appl 	NumberofON 	0
scalar RSUExampleScenario.node[56].appl 	NumberofFN 	0.78378378378378
scalar RSUExampleScenario.node[56].veinsmobility 	startTime 	135
scalar RSUExampleScenario.node[56].veinsmobility 	totalTime 	315
scalar RSUExampleScenario.node[56].veinsmobility 	stopTime 	450
scalar RSUExampleScenario.node[56].veinsmobility 	minSpeed 	0
scalar RSUExampleScenario.node[56].veinsmobility 	maxSpeed 	13.999903885955
scalar RSUExampleScenario.node[56].veinsmobility 	totalDistance 	1226.122082201
scalar RSUExampleScenario.node[56].veinsmobility 	totalCO2Emission 	494.57276742739
scalar RSUExampleScenario.node[57].appl 	meanClusterNodes 	0
scalar RSUExampleScenario.node[57].appl 	meanClusterHeadUtility 	0
scalar RSUExampleScenario.node[57].appl 	NumberofCH 	0.27027027027027
scalar RSUExampleScenario.node[57].appl 	NumberofON 	0
scalar RSUExampleScenario.node[57].appl 	NumberofFN 	0.72972972972973
scalar RSUExampleScenario.node[57].veinsmobility 	startTime 	137.4
scalar RSUExampleScenario.node[57].veinsmobility 	totalTime 	312.6
scalar RSUExampleScenario.node[57].veinsmobility 	stopTime 	450
scalar RSUExampleScenario.node[57].veinsmobility 	minSpeed 	0
scalar RSUExampleScenario.node[57].veinsmobility 	maxSpeed 	13.999925647818
scalar RSUExampleScenario.node[57].veinsmobility 	totalDistance 	1192.5419083965
scalar RSUExampleScenario.node[57].veinsmobility 	totalCO2Emission 	491.49213047761
scalar RSUExampleScenario.node[58].appl 	meanClusterNodes 	0
scalar RSUExampleScenario.node[58].appl 	meanClusterHeadUtility 	0
scalar RSUExampleScenario.node[58].appl 	NumberofCH 	0.27027027027027
scalar RSUExampleScenario.node[58].appl 	NumberofON 	0
scalar RSUExampleScenario.node[58].appl 	NumberofFN 	0.72972972972973
scalar RSUExampleScenario.node[58].veinsmobility 	startTime 	139.8
scalar RSUExampleScenario.node[58].veinsmobility 	totalTime 	310.2
scalar RSUExampleScenario.node[58].veinsmobility 	stopTime 	450
scalar RSUExampleScenario.node[58].veinsmobility 	minSpeed 	0
scalar RSUExampleScenario.node[58].veinsmobility 	maxSpeed 	13.99971792815
scalar RSUExampleScenario.node[58].veinsmobility 	totalDistance 	1159.0189318147
scalar RSUExampleScenario.node[58].veinsmobility 	totalCO2Emission 	484.10995241673
scalar RSUExampleScenario.node[59].appl 	meanClusterNodes 	0
scalar RSUExampleScenario.node[59].appl 	meanClusterHeadUtility 	0
scalar RSUExampleScenario.node[59].appl 	NumberofCH 	0.27027027027027
scalar RSUExampleScenario.node[59].appl 	NumberofON 	0
scalar RSUExampleScenario.node[59].appl 	NumberofFN 	0.72972972972973
scalar RSUExampleScenario.node[59].veinsmobility 	startTime 	142.2
scalar RSUExampleScenario.node[59].veinsmobility 	totalTime 	307.8
scalar RSUExampleScenario.node[59].veinsmobility 	stopTime 	450
scalar RSUExampleScenario.node[59].veinsmobility 	minSpeed 	0
scalar RSUExampleScenario.node[59].veinsmobility 	maxSpeed 	13.999974318494
scalar RSUExampleScenario.node[59].veinsmobility 	totalDistance 	1124.4527545668
scalar RSUExampleScenario.node[59].veinsmobility 	totalCO2Emission 	480.03992588682
scalar RSUExampleScenario.node[6].appl 	meanClusterNodes 	0
scalar RSUExampleScenario.node[6].appl 	meanClusterHeadUtility 	0
scalar RSUExampleScenario.node[6].appl 	NumberofCH 	0.24324324324324
scalar RSUExampleScenario.node[6].appl 	NumberofON 	0
scalar RSUExampleScenario.node[6].appl 	NumberofFN 	0.75675675675676
scalar RSUExampleScenario.node[6].veinsmobility 	startTime 	14.5
scalar RSUExampleScenario.node[6].veinsmobility 	totalTime 	435.5
scalar RSUExampleScenario.node[6].veinsmobility 	stopTime 	450
scalar RSUExampleScenario.node[6].veinsmobility 	minSpeed 	0
scalar RSUExampleScenario.node[6].veinsmobility 	maxSpeed 	13.999834953619
scalar RSUExampleScenario.node[6].veinsmobility 	totalDistance 	2901.0275502683
scalar RSUExampleScenario.node[6].veinsmobility 	totalCO2Emission 	778.7125206241
scalar RSUExampleScenario.node[60].appl 	meanClusterNodes 	0
scalar RSUExampleScenario.node[60].appl 	meanClusterHeadUtility 	0
scalar RSUExampleScenario.node[60].appl 	NumberofCH 	0.24324324324324
scalar RSUExampleScenario.node[60].appl 	NumberofON 	0
scalar RSUExampleScenario.node[60].appl 	NumberofFN 	0.75675675675676
scalar RSUExampleScenario.node[60].veinsmobility 	startTime 	144.7
scalar RSUExampleScenario.node[60].veinsmobility 	totalTime 	305.3
scalar RSUExampleScenario.node[60].veinsmobility 	stopTime 	450
scalar RSUExampleScenario.node[60].veinsmobility 	minSpeed 	0
scalar RSUExampleScenario.node[60].veinsmobility 	maxSpeed 	13.999796012586
scalar RSUExampleScenario.node[60].veinsmobility 	totalDistance 	1092.2203346321
scalar RSUExampleScenario.node[60].veinsmobility 	totalCO2Emission 	473.63192645179
scalar RSUExampleScenario.node[61].appl 	meanClusterNodes 	0
scalar RSUExampleScenario.node[61].appl 	meanClusterHeadUtility 	0
scalar RSUExampleScenario.node[61].appl 	NumberofCH 	0.21621621621622
scalar RSUExampleScenario.node[61].appl 	NumberofON 	0
scalar RSUExampleScenario.node[61].appl 	NumberofFN 	0.78378378378378
scalar RSUExampleScenario.node[61].veinsmobility 	startTime 	147.1
scalar RSUExampleScenario.node[61].veinsmobility 	totalTime 	302.9
scalar RSUExampleScenario.node[61].veinsmobility 	stopTime 	450
scalar RSUExampleScenario.node[61].veinsmobility 	minSpeed 	0
scalar RSUExampleScenario.node[61].veinsmobility 	maxSpeed 	13.999773648148
scalar RSUExampleScenario.node[61].veinsmobility 	totalDistance 	1059.4783016195
scalar RSUExampleScenario.node[61].veinsmobility 	totalCO2Emission 	467.18382785035
scalar RSUExampleScenario.node[62].appl 	meanClusterNodes 	0
scalar RSUExampleScenario.node[62].appl 	meanClusterHeadUtility 	0
scalar RSUExampleScenario.node[62].appl 	NumberofCH 	0.27027027027027
scalar RSUExampleScenario.node[62].appl 	NumberofON 	0
scalar RSUExampleScenario.node[62].appl 	NumberofFN 	0.72972972972973
scalar RSUExampleScenario.node[62].veinsmobility 	startTime 	149.5
scalar RSUExampleScenario.node[62].veinsmobility 	totalTime 	300.5
scalar RSUExampleScenario.node[62].veinsmobility 	stopTime 	450
scalar RSUExampleScenario.node[62].veinsmobility 	minSpeed 	0
scalar RSUExampleScenario.node[62].veinsmobility 	maxSpeed 	13.999149928309
scalar RSUExampleScenario.node[62].veinsmobility 	totalDistance 	1024.9504106166
scalar RSUExampleScenario.node[62].veinsmobility 	totalCO2Emission 	462.40776830724
scalar RSUExampleScenario.node[63].appl 	meanClusterNodes 	0
scalar RSUExampleScenario.node[63].appl 	meanClusterHeadUtility 	0
scalar RSUExampleScenario.node[63].appl 	NumberofCH 	0.27027027027027
scalar RSUExampleScenario.node[63].appl 	NumberofON 	0
scalar RSUExampleScenario.node[63].appl 	NumberofFN 	0.72972972972973
scalar RSUExampleScenario.node[63].veinsmobility 	startTime 	151.9
scalar RSUExampleScenario.node[63].veinsmobility 	totalTime 	298.1
scalar RSUExampleScenario.node[63].veinsmobility 	stopTime 	450
scalar RSUExampleScenario.node[63].veinsmobility 	minSpeed 	0
scalar RSUExampleScenario.node[63].veinsmobility 	maxSpeed 	13.999955987355
scalar RSUExampleScenario.node[63].veinsmobility 	totalDistance 	986.26349074406
scalar RSUExampleScenario.node[63].veinsmobility 	totalCO2Emission 	448.51736512679
scalar RSUExampleScenario.node[64].appl 	meanClusterNodes 	0
scalar RSUExampleScenario.node[64].appl 	meanClusterHeadUtility 	0
scalar RSUExampleScenario.node[64].appl 	NumberofCH 	0.27027027027027
scalar RSUExampleScenario.node[64].appl 	NumberofON 	0
scalar RSUExampleScenario.node[64].appl 	NumberofFN 	0.72972972972973
scalar RSUExampleScenario.node[64].veinsmobility 	startTime 	154.3
scalar RSUExampleScenario.node[64].veinsmobility 	totalTime 	295.7
scalar RSUExampleScenario.node[64].veinsmobility 	stopTime 	450
scalar RSUExampleScenario.node[64].veinsmobility 	minSpeed 	0
scalar RSUExampleScenario.node[64].veinsmobility 	maxSpeed 	13.99992882526
scalar RSUExampleScenario.node[64].veinsmobility 	totalDistance 	954.40200340525
scalar RSUExampleScenario.node[64].veinsmobility 	totalCO2Emission 	434.69243719234
scalar RSUExampleScenario.node[65].appl 	meanClusterNodes 	0
scalar RSUExampleScenario.node[65].appl 	meanClusterHeadUtility 	0
scalar RSUExampleScenario.node[65].appl 	NumberofCH 	0.21621621621622
scalar RSUExampleScenario.node[65].appl 	NumberofON 	0
scalar RSUExampleScenario.node[65].appl 	NumberofFN 	0.78378378378378
scalar RSUExampleScenario.node[65].veinsmobility 	startTime 	156.7
scalar RSUExampleScenario.node[65].veinsmobility 	totalTime 	293.3
scalar RSUExampleScenario.node[65].veinsmobility 	stopTime 	450
scalar RSUExampleScenario.node[65].veinsmobility 	minSpeed 	0
scalar RSUExampleScenario.node[65].veinsmobility 	maxSpeed 	13.999918939918
scalar RSUExampleScenario.node[65].veinsmobility 	totalDistance 	940.54375362966
scalar RSUExampleScenario.node[65].veinsmobility 	totalCO2Emission 	426.99859617521
scalar RSUExampleScenario.node[66].appl 	meanClusterNodes 	0
scalar RSUExampleScenario.node[66].appl 	meanClusterHeadUtility 	0
scalar RSUExampleScenario.node[66].appl 	NumberofCH 	0.27027027027027
scalar RSUExampleScenario.node[66].appl 	NumberofON 	0
scalar RSUExampleScenario.node[66].appl 	NumberofFN 	0.72972972972973
scalar RSUExampleScenario.node[66].veinsmobility 	startTime 	159.1
scalar RSUExampleScenario.node[66].veinsmobility 	totalTime 	290.9
scalar RSUExampleScenario.node[66].veinsmobility 	stopTime 	450
scalar RSUExampleScenario.node[66].veinsmobility 	minSpeed 	0
scalar RSUExampleScenario.node[66].veinsmobility 	maxSpeed 	13.999740877245
scalar RSUExampleScenario.node[66].veinsmobility 	totalDistance 	928.38846911956
scalar RSUExampleScenario.node[66].veinsmobility 	totalCO2Emission 	425.1682258307
scalar RSUExampleScenario.node[67].appl 	meanClusterNodes 	0
scalar RSUExampleScenario.node[67].appl 	meanClusterHeadUtility 	0
scalar RSUExampleScenario.node[67].appl 	NumberofCH 	0.21621621621622
scalar RSUExampleScenario.node[67].appl 	NumberofON 	0
scalar RSUExampleScenario.node[67].appl 	NumberofFN 	0.78378378378378
scalar RSUExampleScenario.node[67].veinsmobility 	startTime 	161.5
scalar RSUExampleScenario.node[67].veinsmobility 	totalTime 	288.5
scalar RSUExampleScenario.node[67].veinsmobility 	stopTime 	450
scalar RSUExampleScenario.node[67].veinsmobility 	minSpeed 	0
scalar RSUExampleScenario.node[67].veinsmobility 	maxSpeed 	13.999985771505
scalar RSUExampleScenario.node[67].veinsmobility 	totalDistance 	913.23851017862
scalar RSUExampleScenario.node[67].veinsmobility 	totalCO2Emission 	422.15902224461
scalar RSUExampleScenario.node[68].appl 	meanClusterNodes 	0
scalar RSUExampleScenario.node[68].appl 	meanClusterHeadUtility 	0
scalar RSUExampleScenario.node[68].appl 	NumberofCH 	0.27027027027027
scalar RSUExampleScenario.node[68].appl 	NumberofON 	0
scalar RSUExampleScenario.node[68].appl 	NumberofFN 	0.72972972972973
scalar RSUExampleScenario.node[68].veinsmobility 	startTime 	163.9
scalar RSUExampleScenario.node[68].veinsmobility 	totalTime 	286.1
scalar RSUExampleScenario.node[68].veinsmobility 	stopTime 	450
scalar RSUExampleScenario.node[68].veinsmobility 	minSpeed 	0
scalar RSUExampleScenario.node[68].veinsmobility 	maxSpeed 	13.999385327897
scalar RSUExampleScenario.node[68].veinsmobility 	totalDistance 	892.8024488416
scalar RSUExampleScenario.node[68].veinsmobility 	totalCO2Emission 	421.1369065745
scalar RSUExampleScenario.node[69].appl 	meanClusterNodes 	0
scalar RSUExampleScenario.node[69].appl 	meanClusterHeadUtility 	0
scalar RSUExampleScenario.node[69].appl 	NumberofCH 	0.21621621621622
scalar RSUExampleScenario.node[69].appl 	NumberofON 	0
scalar RSUExampleScenario.node[69].appl 	NumberofFN 	0.78378378378378
scalar RSUExampleScenario.node[69].veinsmobility 	startTime 	166.3
scalar RSUExampleScenario.node[69].veinsmobility 	totalTime 	283.7
scalar RSUExampleScenario.node[69].veinsmobility 	stopTime 	450
scalar RSUExampleScenario.node[69].veinsmobility 	minSpeed 	0
scalar RSUExampleScenario.node[69].veinsmobility 	maxSpeed 	13.999445645905
scalar RSUExampleScenario.node[69].veinsmobility 	totalDistance 	859.44387553132
scalar RSUExampleScenario.node[69].veinsmobility 	totalCO2Emission 	413.6969143811
scalar RSUExampleScenario.node[7].appl 	meanClusterNodes 	0
scalar RSUExampleScenario.node[7].appl 	meanClusterHeadUtility 	0
scalar RSUExampleScenario.node[7].appl 	NumberofCH 	0.18918918918919
scalar RSUExampleScenario.node[7].appl 	NumberofON 	0
scalar RSUExampleScenario.node[7].appl 	NumberofFN 	0.81081081081081
scalar RSUExampleScenario.node[7].veinsmobility 	startTime 	16.9
scalar RSUExampleScenario.node[7].veinsmobility 	totalTime 	433.1
scalar RSUExampleScenario.node[7].veinsmobility 	stopTime 	450
scalar RSUExampleScenario.node[7].veinsmobility 	minSpeed 	0
scalar RSUExampleScenario.node[7].veinsmobility 	maxSpeed 	13.999913559875
scalar RSUExampleScenario.node[7].veinsmobility 	totalDistance 	2888.7314889048
scalar RSUExampleScenario.node[7].veinsmobility 	totalCO2Emission 	776.33933335395
scalar RSUExampleScenario.node[70].appl 	meanClusterNodes 	0
scalar RSUExampleScenario.node[70].appl 	meanClusterHeadUtility 	0
scalar RSUExampleScenario.node[70].appl 	NumberofCH 	0.27027027027027
scalar RSUExampleScenario.node[70].appl 	NumberofON 	0
scalar RSUExampleScenario.node[70].appl 	NumberofFN 	0.72972972972973
scalar RSUExampleScenario.node[70].veinsmobility 	startTime 	168.8
scalar RSUExampleScenario.node[70].veinsmobility 	totalTime 	281.2
scalar RSUExampleScenario.node[70].veinsmobility 	stopTime 	450
scalar RSUExampleScenario.node[70].veinsmobility 	minSpeed 	0
scalar RSUExampleScenario.node[70].veinsmobility 	maxSpeed 	13.999532759159
scalar RSUExampleScenario.node[70].veinsmobility 	totalDistance 	824.45027439865
scalar RSUExampleScenario.node[70].veinsmobility 	totalCO2Emission 	409.51154244569
scalar RSUExampleScenario.node[71].appl 	meanClusterNodes 	0
scalar RSUExampleScenario.node[71].appl 	meanClusterHeadUtility 	0
scalar RSUExampleScenario.node[71].appl 	NumberofCH 	0.27027027027027
scalar RSUExampleScenario.node[71].appl 	NumberofON 	0
scalar RSUExampleScenario.node[71].appl 	NumberofFN 	0.72972972972973
scalar RSUExampleScenario.node[71].veinsmobility 	startTime 	171.2
scalar RSUExampleScenario.node[71].veinsmobility 	totalTime 	278.8
scalar RSUExampleScenario.node[71].veinsmobility 	stopTime 	450
scalar RSUExampleScenario.node[71].veinsmobility 	minSpeed 	0
scalar RSUExampleScenario.node[71].veinsmobility 	maxSpeed 	13.999789930629
scalar RSUExampleScenario.node[71].veinsmobility 	totalDistance 	791.66048290797
scalar RSUExampleScenario.node[71].veinsmobility 	totalCO2Emission 	401.67435849052
scalar RSUExampleScenario.node[72].appl 	meanClusterNodes 	0
scalar RSUExampleScenario.node[72].appl 	meanClusterHeadUtility 	0
scalar RSUExampleScenario.node[72].appl 	NumberofCH 	0.21621621621622
scalar RSUExampleScenario.node[72].appl 	NumberofON 	0
scalar RSUExampleScenario.node[72].appl 	NumberofFN 	0.78378378378378
scalar RSUExampleScenario.node[72].veinsmobility 	startTime 	173.6
scalar RSUExampleScenario.node[72].veinsmobility 	totalTime 	276.4
scalar RSUExampleScenario.node[72].veinsmobility 	stopTime 	450
scalar RSUExampleScenario.node[72].veinsmobility 	minSpeed 	0
scalar RSUExampleScenario.node[72].veinsmobility 	maxSpeed 	13.999687324131
scalar RSUExampleScenario.node[72].veinsmobility 	totalDistance 	758.69019636526
scalar RSUExampleScenario.node[72].veinsmobility 	totalCO2Emission 	397.66203109902
scalar RSUExampleScenario.node[73].appl 	meanClusterNodes 	0
scalar RSUExampleScenario.node[73].appl 	meanClusterHeadUtility 	0
scalar RSUExampleScenario.node[73].appl 	NumberofCH 	0.24324324324324
scalar RSUExampleScenario.node[73].appl 	NumberofON 	0
scalar RSUExampleScenario.node[73].appl 	NumberofFN 	0.75675675675676
scalar RSUExampleScenario.node[73].veinsmobility 	startTime 	176
scalar RSUExampleScenario.node[73].veinsmobility 	totalTime 	274
scalar RSUExampleScenario.node[73].veinsmobility 	stopTime 	450
scalar RSUExampleScenario.node[73].veinsmobility 	minSpeed 	0
scalar RSUExampleScenario.node[73].veinsmobility 	maxSpeed 	13.999443035927
scalar RSUExampleScenario.node[73].veinsmobility 	totalDistance 	725.11717866096
scalar RSUExampleScenario.node[73].veinsmobility 	totalCO2Emission 	391.12309285038
scalar RSUExampleScenario.node[74].appl 	meanClusterNodes 	0
scalar RSUExampleScenario.node[74].appl 	meanClusterHeadUtility 	0
scalar RSUExampleScenario.node[74].appl 	NumberofCH 	0.27027027027027
scalar RSUExampleScenario.node[74].appl 	NumberofON 	0
scalar RSUExampleScenario.node[74].appl 	NumberofFN 	0.72972972972973
scalar RSUExampleScenario.node[74].veinsmobility 	startTime 	178.4
scalar RSUExampleScenario.node[74].veinsmobility 	totalTime 	271.6
scalar RSUExampleScenario.node[74].veinsmobility 	stopTime 	450
scalar RSUExampleScenario.node[74].veinsmobility 	minSpeed 	0
scalar RSUExampleScenario.node[74].veinsmobility 	maxSpeed 	13.998811728207
scalar RSUExampleScenario.node[74].veinsmobility 	totalDistance 	690.5177315152
scalar RSUExampleScenario.node[74].veinsmobility 	totalCO2Emission 	385.81901538016
scalar RSUExampleScenario.node[75].appl 	meanClusterNodes 	0
scalar RSUExampleScenario.node[75].appl 	meanClusterHeadUtility 	0
scalar RSUExampleScenario.node[75].appl 	NumberofCH 	0.24324324324324
scalar RSUExampleScenario.node[75].appl 	NumberofON 	0
scalar RSUExampleScenario.node[75].appl 	NumberofFN 	0.75675675675676
scalar RSUExampleScenario.node[75].veinsmobility 	startTime 	180.8
scalar RSUExampleScenario.node[75].veinsmobility 	totalTime 	269.2
scalar RSUExampleScenario.node[75].veinsmobility 	stopTime 	450
scalar RSUExampleScenario.node[75].veinsmobility 	minSpeed 	0
scalar RSUExampleScenario.node[75].veinsmobility 	maxSpeed 	13.999481833458
scalar RSUExampleScenario.node[75].veinsmobility 	totalDistance 	656.61322930859
scalar RSUExampleScenario.node[75].veinsmobility 	totalCO2Emission 	378.84333600297
scalar RSUExampleScenario.node[76].appl 	meanClusterNodes 	0
scalar RSUExampleScenario.node[76].appl 	meanClusterHeadUtility 	0
scalar RSUExampleScenario.node[76].appl 	NumberofCH 	0.2972972972973
scalar RSUExampleScenario.node[76].appl 	NumberofON 	0
scalar RSUExampleScenario.node[76].appl 	NumberofFN 	0.7027027027027
scalar RSUExampleScenario.node[76].veinsmobility 	startTime 	183.2
scalar RSUExampleScenario.node[76].veinsmobility 	totalTime 	266.8
scalar RSUExampleScenario.node[76].veinsmobility 	stopTime 	450
scalar RSUExampleScenario.node[76].veinsmobility 	minSpeed 	0
scalar RSUExampleScenario.node[76].veinsmobility 	maxSpeed 	13.999908387864
scalar RSUExampleScenario.node[76].veinsmobility 	totalDistance 	622.79728992099
scalar RSUExampleScenario.node[76].veinsmobility 	totalCO2Emission 	372.22606022769
scalar RSUExampleScenario.node[77].appl 	meanClusterNodes 	0
scalar RSUExampleScenario.node[77].appl 	meanClusterHeadUtility 	0
scalar RSUExampleScenario.node[77].appl 	NumberofCH 	0.27027027027027
scalar RSUExampleScenario.node[77].appl 	NumberofON 	0
scalar RSUExampleScenario.node[77].appl 	NumberofFN 	0.72972972972973
scalar RSUExampleScenario.node[77].veinsmobility 	startTime 	185.6
scalar RSUExampleScenario.node[77].veinsmobility 	totalTime 	264.4
scalar RSUExampleScenario.node[77].veinsmobility 	stopTime 	450
scalar RSUExampleScenario.node[77].veinsmobility 	minSpeed 	0
scalar RSUExampleScenario.node[77].veinsmobility 	maxSpeed 	13.999933235124
scalar RSUExampleScenario.node[77].veinsmobility 	totalDistance 	589.52070110096
scalar RSUExampleScenario.node[77].veinsmobility 	totalCO2Emission 	367.95426661224
scalar RSUExampleScenario.node[78].appl 	meanClusterNodes 	0
scalar RSUExampleScenario.node[78].appl 	meanClusterHeadUtility 	0
scalar RSUExampleScenario.node[78].appl 	NumberofCH 	0.21621621621622
scalar RSUExampleScenario.node[78].appl 	NumberofON 	0
scalar RSUExampleScenario.node[78].appl 	NumberofFN 	0.78378378378378
scalar RSUExampleScenario.node[78].veinsmobility 	startTime 	188
scalar RSUExampleScenario.node[78].veinsmobility 	totalTime 	262
scalar RSUExampleScenario.node[78].veinsmobility 	stopTime 	450
scalar RSUExampleScenario.node[78].veinsmobility 	minSpeed 	0
scalar RSUExampleScenario.node[78].veinsmobility 	maxSpeed 	13.998971174678
scalar RSUExampleScenario.node[78].veinsmobility 	totalDistance 	557.01216586161
scalar RSUExampleScenario.node[78].veinsmobility 	totalCO2Emission 	362.31011747774
scalar RSUExampleScenario.node[79].appl 	meanClusterNodes 	0
scalar RSUExampleScenario.node[79].appl 	meanClusterHeadUtility 	0
scalar RSUExampleScenario.node[79].appl 	NumberofCH 	0.2972972972973
scalar RSUExampleScenario.node[79].appl 	NumberofON 	0
scalar RSUExampleScenario.node[79].appl 	NumberofFN 	0.7027027027027
scalar RSUExampleScenario.node[79].veinsmobility 	startTime 	190.4
scalar RSUExampleScenario.node[79].veinsmobility 	totalTime 	259.6
scalar RSUExampleScenario.node[79].veinsmobility 	stopTime 	450
scalar RSUExampleScenario.node[79].veinsmobility 	minSpeed 	0
scalar RSUExampleScenario.node[79].veinsmobility 	maxSpeed 	13.998854473955
scalar RSUExampleScenario.node[79].veinsmobility 	totalDistance 	523.47569470121
scalar RSUExampleScenario.node[79].veinsmobility 	totalCO2Emission 	355.96778314181
scalar RSUExampleScenario.node[8].appl 	meanClusterNodes 	0
scalar RSUExampleScenario.node[8].appl 	meanClusterHeadUtility 	0
scalar RSUExampleScenario.node[8].appl 	NumberofCH 	0.27027027027027
scalar RSUExampleScenario.node[8].appl 	NumberofON 	0
scalar RSUExampleScenario.node[8].appl 	NumberofFN 	0.72972972972973
scalar RSUExampleScenario.node[8].veinsmobility 	startTime 	19.3
scalar RSUExampleScenario.node[8].veinsmobility 	totalTime 	430.7
scalar RSUExampleScenario.node[8].veinsmobility 	stopTime 	450
scalar RSUExampleScenario.node[8].veinsmobility 	minSpeed 	0
scalar RSUExampleScenario.node[8].veinsmobility 	maxSpeed 	13.999895784275
scalar RSUExampleScenario.node[8].veinsmobility 	totalDistance 	2854.8716190179
scalar RSUExampleScenario.node[8].veinsmobility 	totalCO2Emission 	773.17085535476
scalar RSUExampleScenario.node[80].appl 	meanClusterNodes 	0
scalar RSUExampleScenario.node[80].appl 	meanClusterHeadUtility 	0
scalar RSUExampleScenario.node[80].appl 	NumberofCH 	0.24324324324324
scalar RSUExampleScenario.node[80].appl 	NumberofON 	0
scalar RSUExampleScenario.node[80].appl 	NumberofFN 	0.75675675675676
scalar RSUExampleScenario.node[80].veinsmobility 	startTime 	192.9
scalar RSUExampleScenario.node[80].veinsmobility 	totalTime 	257.1
scalar RSUExampleScenario.node[80].veinsmobility 	stopTime 	450
scalar RSUExampleScenario.node[80].veinsmobility 	minSpeed 	0
scalar RSUExampleScenario.node[80].veinsmobility 	maxSpeed 	13.998831751114
scalar RSUExampleScenario.node[80].veinsmobility 	totalDistance 	488.85420972909
scalar RSUExampleScenario.node[80].veinsmobility 	totalCO2Emission 	350.33624433523
scalar RSUExampleScenario.node[81].appl 	meanClusterNodes 	0
scalar RSUExampleScenario.node[81].appl 	meanClusterHeadUtility 	0
scalar RSUExampleScenario.node[81].appl 	NumberofCH 	0.27027027027027
scalar RSUExampleScenario.node[81].appl 	NumberofON 	0
scalar RSUExampleScenario.node[81].appl 	NumberofFN 	0.72972972972973
scalar RSUExampleScenario.node[81].veinsmobility 	startTime 	195.3
scalar RSUExampleScenario.node[81].veinsmobility 	totalTime 	254.7
scalar RSUExampleScenario.node[81].veinsmobility 	stopTime 	450
scalar RSUExampleScenario.node[81].veinsmobility 	minSpeed 	0
scalar RSUExampleScenario.node[81].veinsmobility 	maxSpeed 	13.99963967049
scalar RSUExampleScenario.node[81].veinsmobility 	totalDistance 	454.5433983205
scalar RSUExampleScenario.node[81].veinsmobility 	totalCO2Emission 	344.80351110177
scalar RSUExampleScenario.node[82].appl 	meanClusterNodes 	0
scalar RSUExampleScenario.node[82].appl 	meanClusterHeadUtility 	0
scalar RSUExampleScenario.node[82].appl 	NumberofCH 	0.21621621621622
scalar RSUExampleScenario.node[82].appl 	NumberofON 	0
scalar RSUExampleScenario.node[82].appl 	NumberofFN 	0.78378378378378
scalar RSUExampleScenario.node[82].veinsmobility 	startTime 	197.7
scalar RSUExampleScenario.node[82].veinsmobility 	totalTime 	252.3
scalar RSUExampleScenario.node[82].veinsmobility 	stopTime 	450
scalar RSUExampleScenario.node[82].veinsmobility 	minSpeed 	0
scalar RSUExampleScenario.node[82].veinsmobility 	maxSpeed 	13.997500590617
scalar RSUExampleScenario.node[82].veinsmobility 	totalDistance 	423.03436963714
scalar RSUExampleScenario.node[82].veinsmobility 	totalCO2Emission 	340.04702065877
scalar RSUExampleScenario.node[83].appl 	meanClusterNodes 	0
scalar RSUExampleScenario.node[83].appl 	meanClusterHeadUtility 	0
scalar RSUExampleScenario.node[83].appl 	NumberofCH 	0.21621621621622
scalar RSUExampleScenario.node[83].appl 	NumberofON 	0
scalar RSUExampleScenario.node[83].appl 	NumberofFN 	0.78378378378378
scalar RSUExampleScenario.node[83].veinsmobility 	startTime 	200.1
scalar RSUExampleScenario.node[83].veinsmobility 	totalTime 	249.9
scalar RSUExampleScenario.node[83].veinsmobility 	stopTime 	450
scalar RSUExampleScenario.node[83].veinsmobility 	minSpeed 	0
scalar RSUExampleScenario.node[83].veinsmobility 	maxSpeed 	13.998539413665
scalar RSUExampleScenario.node[83].veinsmobility 	totalDistance 	389.25585080742
scalar RSUExampleScenario.node[83].veinsmobility 	totalCO2Emission 	333.82851402318
scalar RSUExampleScenario.node[84].appl 	meanClusterNodes 	0
scalar RSUExampleScenario.node[84].appl 	meanClusterHeadUtility 	0
scalar RSUExampleScenario.node[84].appl 	NumberofCH 	0.2972972972973
scalar RSUExampleScenario.node[84].appl 	NumberofON 	0
scalar RSUExampleScenario.node[84].appl 	NumberofFN 	0.7027027027027
scalar RSUExampleScenario.node[84].veinsmobility 	startTime 	202.5
scalar RSUExampleScenario.node[84].veinsmobility 	totalTime 	247.5
scalar RSUExampleScenario.node[84].veinsmobility 	stopTime 	450
scalar RSUExampleScenario.node[84].veinsmobility 	minSpeed 	0
scalar RSUExampleScenario.node[84].veinsmobility 	maxSpeed 	13.999510969631
scalar RSUExampleScenario.node[84].veinsmobility 	totalDistance 	355.11162055661
scalar RSUExampleScenario.node[84].veinsmobility 	totalCO2Emission 	328.43031888301
scalar RSUExampleScenario.node[85].appl 	meanClusterNodes 	0
scalar RSUExampleScenario.node[85].appl 	meanClusterHeadUtility 	0
scalar RSUExampleScenario.node[85].appl 	NumberofCH 	0.24324324324324
scalar RSUExampleScenario.node[85].appl 	NumberofON 	0
scalar RSUExampleScenario.node[85].appl 	NumberofFN 	0.75675675675676
scalar RSUExampleScenario.node[85].veinsmobility 	startTime 	204.9
scalar RSUExampleScenario.node[85].veinsmobility 	totalTime 	245.1
scalar RSUExampleScenario.node[85].veinsmobility 	stopTime 	450
scalar RSUExampleScenario.node[85].veinsmobility 	minSpeed 	0
scalar RSUExampleScenario.node[85].veinsmobility 	maxSpeed 	13.990529253695
scalar RSUExampleScenario.node[85].veinsmobility 	totalDistance 	320.59971607047
scalar RSUExampleScenario.node[85].veinsmobility 	totalCO2Emission 	322.77506925231
scalar RSUExampleScenario.node[86].appl 	meanClusterNodes 	0
scalar RSUExampleScenario.node[86].appl 	meanClusterHeadUtility 	0
scalar RSUExampleScenario.node[86].appl 	NumberofCH 	0.21621621621622
scalar RSUExampleScenario.node[86].appl 	NumberofON 	0
scalar RSUExampleScenario.node[86].appl 	NumberofFN 	0.78378378378378
scalar RSUExampleScenario.node[86].veinsmobility 	startTime 	207.3
scalar RSUExampleScenario.node[86].veinsmobility 	totalTime 	242.7
scalar RSUExampleScenario.node[86].veinsmobility 	stopTime 	450
scalar RSUExampleScenario.node[86].veinsmobility 	minSpeed 	0
scalar RSUExampleScenario.node[86].veinsmobility 	maxSpeed 	13.856160790338
scalar RSUExampleScenario.node[86].veinsmobility 	totalDistance 	283.97065482692
scalar RSUExampleScenario.node[86].veinsmobility 	totalCO2Emission 	314.26585651466
scalar RSUExampleScenario.node[87].appl 	meanClusterNodes 	0
scalar RSUExampleScenario.node[87].appl 	meanClusterHeadUtility 	0
scalar RSUExampleScenario.node[87].appl 	NumberofCH 	0.21621621621622
scalar RSUExampleScenario.node[87].appl 	NumberofON 	0
scalar RSUExampleScenario.node[87].appl 	NumberofFN 	0.78378378378378
scalar RSUExampleScenario.node[87].veinsmobility 	startTime 	209.7
scalar RSUExampleScenario.node[87].veinsmobility 	totalTime 	240.3
scalar RSUExampleScenario.node[87].veinsmobility 	stopTime 	450
scalar RSUExampleScenario.node[87].veinsmobility 	minSpeed 	0
scalar RSUExampleScenario.node[87].veinsmobility 	maxSpeed 	13.813644108886
scalar RSUExampleScenario.node[87].veinsmobility 	totalDistance 	247.46639028375
scalar RSUExampleScenario.node[87].veinsmobility 	totalCO2Emission 	297.88242545709
scalar RSUExampleScenario.node[88].appl 	meanClusterNodes 	0
scalar RSUExampleScenario.node[88].appl 	meanClusterHeadUtility 	0
scalar RSUExampleScenario.node[88].appl 	NumberofCH 	0.27027027027027
scalar RSUExampleScenario.node[88].appl 	NumberofON 	0
scalar RSUExampleScenario.node[88].appl 	NumberofFN 	0.72972972972973
scalar RSUExampleScenario.node[88].veinsmobility 	startTime 	212.1
scalar RSUExampleScenario.node[88].veinsmobility 	totalTime 	237.9
scalar RSUExampleScenario.node[88].veinsmobility 	stopTime 	450
scalar RSUExampleScenario.node[88].veinsmobility 	minSpeed 	0
scalar RSUExampleScenario.node[88].veinsmobility 	maxSpeed 	13.87766281462
scalar RSUExampleScenario.node[88].veinsmobility 	totalDistance 	225.50024230623
scalar RSUExampleScenario.node[88].veinsmobility 	totalCO2Emission 	286.89576012272
scalar RSUExampleScenario.node[89].appl 	meanClusterNodes 	0
scalar RSUExampleScenario.node[89].appl 	meanClusterHeadUtility 	0
scalar RSUExampleScenario.node[89].appl 	NumberofCH 	0.24324324324324
scalar RSUExampleScenario.node[89].appl 	NumberofON 	0
scalar RSUExampleScenario.node[89].appl 	NumberofFN 	0.75675675675676
scalar RSUExampleScenario.node[89].veinsmobility 	startTime 	214.5
scalar RSUExampleScenario.node[89].veinsmobility 	totalTime 	235.5
scalar RSUExampleScenario.node[89].veinsmobility 	stopTime 	450
scalar RSUExampleScenario.node[89].veinsmobility 	minSpeed 	0
scalar RSUExampleScenario.node[89].veinsmobility 	maxSpeed 	13.769011427287
scalar RSUExampleScenario.node[89].veinsmobility 	totalDistance 	215.06531509521
scalar RSUExampleScenario.node[89].veinsmobility 	totalCO2Emission 	282.87381014432
scalar RSUExampleScenario.node[9].appl 	meanClusterNodes 	0
scalar RSUExampleScenario.node[9].appl 	meanClusterHeadUtility 	0
scalar RSUExampleScenario.node[9].appl 	NumberofCH 	0.24324324324324
scalar RSUExampleScenario.node[9].appl 	NumberofON 	0
scalar RSUExampleScenario.node[9].appl 	NumberofFN 	0.75675675675676
scalar RSUExampleScenario.node[9].veinsmobility 	startTime 	21.7
scalar RSUExampleScenario.node[9].veinsmobility 	totalTime 	428.3
scalar RSUExampleScenario.node[9].veinsmobility 	stopTime 	450
scalar RSUExampleScenario.node[9].veinsmobility 	minSpeed 	0
scalar RSUExampleScenario.node[9].veinsmobility 	maxSpeed 	13.9999893773
scalar RSUExampleScenario.node[9].veinsmobility 	totalDistance 	2826.6037187532
scalar RSUExampleScenario.node[9].veinsmobility 	totalCO2Emission 	765.09671769148
scalar RSUExampleScenario.node[90].appl 	meanClusterNodes 	0
scalar RSUExampleScenario.node[90].appl 	meanClusterHeadUtility 	0
scalar RSUExampleScenario.node[90].appl 	NumberofCH 	0.27027027027027
scalar RSUExampleScenario.node[90].appl 	NumberofON 	0
scalar RSUExampleScenario.node[90].appl 	NumberofFN 	0.72972972972973
scalar RSUExampleScenario.node[90].veinsmobility 	startTime 	217
scalar RSUExampleScenario.node[90].veinsmobility 	totalTime 	233
scalar RSUExampleScenario.node[90].veinsmobility 	stopTime 	450
scalar RSUExampleScenario.node[90].veinsmobility 	minSpeed 	0
scalar RSUExampleScenario.node[90].veinsmobility 	maxSpeed 	13.762839557812
scalar RSUExampleScenario.node[90].veinsmobility 	totalDistance 	201.68377359087
scalar RSUExampleScenario.node[90].veinsmobility 	totalCO2Emission 	279.42149422245
scalar RSUExampleScenario.node[91].appl 	meanClusterNodes 	0
scalar RSUExampleScenario.node[91].appl 	meanClusterHeadUtility 	0
scalar RSUExampleScenario.node[91].appl 	NumberofCH 	0.27027027027027
scalar RSUExampleScenario.node[91].appl 	NumberofON 	0
scalar RSUExampleScenario.node[91].appl 	NumberofFN 	0.72972972972973
scalar RSUExampleScenario.node[91].veinsmobility 	startTime 	219.4
scalar RSUExampleScenario.node[91].veinsmobility 	totalTime 	230.6
scalar RSUExampleScenario.node[91].veinsmobility 	stopTime 	450
scalar RSUExampleScenario.node[91].veinsmobility 	minSpeed 	0
scalar RSUExampleScenario.node[91].veinsmobility 	maxSpeed 	13.81045073285
scalar RSUExampleScenario.node[91].veinsmobility 	totalDistance 	185.17775371876
scalar RSUExampleScenario.node[91].veinsmobility 	totalCO2Emission 	277.11617393467
scalar RSUExampleScenario.node[92].appl 	meanClusterNodes 	0
scalar RSUExampleScenario.node[92].appl 	meanClusterHeadUtility 	0
scalar RSUExampleScenario.node[92].appl 	NumberofCH 	0.27027027027027
scalar RSUExampleScenario.node[92].appl 	NumberofON 	0
scalar RSUExampleScenario.node[92].appl 	NumberofFN 	0.72972972972973
scalar RSUExampleScenario.node[92].veinsmobility 	startTime 	221.8
scalar RSUExampleScenario.node[92].veinsmobility 	totalTime 	228.2
scalar RSUExampleScenario.node[92].veinsmobility 	stopTime 	450
scalar RSUExampleScenario.node[92].veinsmobility 	minSpeed 	0
scalar RSUExampleScenario.node[92].veinsmobility 	maxSpeed 	13.825497452193
scalar RSUExampleScenario.node[92].veinsmobility 	totalDistance 	149.20528823353
scalar RSUExampleScenario.node[92].veinsmobility 	totalCO2Emission 	263.67685250461
scalar RSUExampleScenario.node[93].appl 	meanClusterNodes 	0
scalar RSUExampleScenario.node[93].appl 	meanClusterHeadUtility 	0
scalar RSUExampleScenario.node[93].appl 	NumberofCH 	0.21621621621622
scalar RSUExampleScenario.node[93].appl 	NumberofON 	0
scalar RSUExampleScenario.node[93].appl 	NumberofFN 	0.78378378378378
scalar RSUExampleScenario.node[93].veinsmobility 	startTime 	224.2
scalar RSUExampleScenario.node[93].veinsmobility 	totalTime 	225.8
scalar RSUExampleScenario.node[93].veinsmobility 	stopTime 	450
scalar RSUExampleScenario.node[93].veinsmobility 	minSpeed 	0
scalar RSUExampleScenario.node[93].veinsmobility 	maxSpeed 	13.863487436008
scalar RSUExampleScenario.node[93].veinsmobility 	totalDistance 	122.81319057095
scalar RSUExampleScenario.node[93].veinsmobility 	totalCO2Emission 	251.19812923397
scalar RSUExampleScenario.node[94].appl 	meanClusterNodes 	0
scalar RSUExampleScenario.node[94].appl 	meanClusterHeadUtility 	0
scalar RSUExampleScenario.node[94].appl 	NumberofCH 	0.27027027027027
scalar RSUExampleScenario.node[94].appl 	NumberofON 	0
scalar RSUExampleScenario.node[94].appl 	NumberofFN 	0.72972972972973
scalar RSUExampleScenario.node[94].veinsmobility 	startTime 	226.6
scalar RSUExampleScenario.node[94].veinsmobility 	totalTime 	223.4
scalar RSUExampleScenario.node[94].veinsmobility 	stopTime 	450
scalar RSUExampleScenario.node[94].veinsmobility 	minSpeed 	0
scalar RSUExampleScenario.node[94].veinsmobility 	maxSpeed 	13.767518444695
scalar RSUExampleScenario.node[94].veinsmobility 	totalDistance 	111.69580302018
scalar RSUExampleScenario.node[94].veinsmobility 	totalCO2Emission 	245.14985528469
scalar RSUExampleScenario.node[95].appl 	meanClusterNodes 	0
scalar RSUExampleScenario.node[95].appl 	meanClusterHeadUtility 	0
scalar RSUExampleScenario.node[95].appl 	NumberofCH 	0.27027027027027
scalar RSUExampleScenario.node[95].appl 	NumberofON 	0
scalar RSUExampleScenario.node[95].appl 	NumberofFN 	0.72972972972973
scalar RSUExampleScenario.node[95].veinsmobility 	startTime 	229
scalar RSUExampleScenario.node[95].veinsmobility 	totalTime 	221
scalar RSUExampleScenario.node[95].veinsmobility 	stopTime 	450
scalar RSUExampleScenario.node[95].veinsmobility 	minSpeed 	0
scalar RSUExampleScenario.node[95].veinsmobility 	maxSpeed 	13.810295581406
scalar RSUExampleScenario.node[95].veinsmobility 	totalDistance 	99.002541494038
scalar RSUExampleScenario.node[95].veinsmobility 	totalCO2Emission 	242.01595705717
scalar RSUExampleScenario.node[96].appl 	meanClusterNodes 	0
scalar RSUExampleScenario.node[96].appl 	meanClusterHeadUtility 	0
scalar RSUExampleScenario.node[96].appl 	NumberofCH 	0.21621621621622
scalar RSUExampleScenario.node[96].appl 	NumberofON 	0
scalar RSUExampleScenario.node[96].appl 	NumberofFN 	0.78378378378378
scalar RSUExampleScenario.node[96].veinsmobility 	startTime 	231.4
scalar RSUExampleScenario.node[96].veinsmobility 	totalTime 	218.6
scalar RSUExampleScenario.node[96].veinsmobility 	stopTime 	450
scalar RSUExampleScenario.node[96].veinsmobility 	minSpeed 	0
scalar RSUExampleScenario.node[96].veinsmobility 	maxSpeed 	13.769935739839
scalar RSUExampleScenario.node[96].veinsmobility 	totalDistance 	83.174686349367
scalar RSUExampleScenario.node[96].veinsmobility 	totalCO2Emission 	239.56393386988
scalar RSUExampleScenario.node[97].appl 	meanClusterNodes 	0
scalar RSUExampleScenario.node[97].appl 	meanClusterHeadUtility 	0
scalar RSUExampleScenario.node[97].appl 	NumberofCH 	0.2972972972973
scalar RSUExampleScenario.node[97].appl 	NumberofON 	0
scalar RSUExampleScenario.node[97].appl 	NumberofFN 	0.7027027027027
scalar RSUExampleScenario.node[97].veinsmobility 	startTime 	233.8
scalar RSUExampleScenario.node[97].veinsmobility 	totalTime 	216.2
scalar RSUExampleScenario.node[97].veinsmobility 	stopTime 	450
scalar RSUExampleScenario.node[97].veinsmobility 	minSpeed 	0
scalar RSUExampleScenario.node[97].veinsmobility 	maxSpeed 	12.030865724735
scalar RSUExampleScenario.node[97].veinsmobility 	totalDistance 	54.399577624538
scalar RSUExampleScenario.node[97].veinsmobility 	totalCO2Emission 	230.96232225491
scalar RSUExampleScenario.node[98].appl 	meanClusterNodes 	0
scalar RSUExampleScenario.node[98].appl 	meanClusterHeadUtility 	0
scalar RSUExampleScenario.node[98].appl 	NumberofCH 	0.21621621621622
scalar RSUExampleScenario.node[98].appl 	NumberofON 	0
scalar RSUExampleScenario.node[98].appl 	NumberofFN 	0.78378378378378
scalar RSUExampleScenario.node[98].veinsmobility 	startTime 	236.2
scalar RSUExampleScenario.node[98].veinsmobility 	totalTime 	213.8
scalar RSUExampleScenario.node[98].veinsmobility 	stopTime 	450
scalar RSUExampleScenario.node[98].veinsmobility 	minSpeed 	0
scalar RSUExampleScenario.node[98].veinsmobility 	maxSpeed 	7.4887148324679
scalar RSUExampleScenario.node[98].veinsmobility 	totalDistance 	20.865058368924
scalar RSUExampleScenario.node[98].veinsmobility 	totalCO2Emission 	216.12823506761
scalar RSUExampleScenario.node[99].appl 	meanClusterNodes 	0
scalar RSUExampleScenario.node[99].appl 	meanClusterHeadUtility 	0
scalar RSUExampleScenario.node[99].appl 	NumberofCH 	0.27027027027027
scalar RSUExampleScenario.node[99].appl 	NumberofON 	0
scalar RSUExampleScenario.node[99].appl 	NumberofFN 	0.72972972972973
scalar RSUExampleScenario.node[99].veinsmobility 	startTime 	238.6
scalar RSUExampleScenario.node[99].veinsmobility 	totalTime 	211.4
scalar RSUExampleScenario.node[99].veinsmobility 	stopTime 	450
scalar RSUExampleScenario.node[99].veinsmobility 	minSpeed 	0
scalar RSUExampleScenario.node[99].veinsmobility 	maxSpeed 	3.1001871594338
scalar RSUExampleScenario.node[99].veinsmobility 	totalDistance 	3.3609587030599
scalar RSUExampleScenario.node[99].veinsmobility 	totalCO2Emission 	207.11842655076
