version 2
run statisticLeach-330-20150323-07:00:00-10344
attr c 23
attr configname statisticLeach
attr datetime 20150323-07:00:00
attr experiment statisticLeach
attr inifile omnetpp.ini
attr iterationvars "$p=1/15, $c=23"
attr iterationvars2 "$p=1/15, $c=23, $repetition=0"
attr measurement "$p=1/15, $c=23"
attr network RSUExampleScenario
attr p 1/15
attr processid 10344
attr repetition 0
attr replication #0
attr resultdir results
attr runnumber 330
attr seedset 330

scalar . 	c 	23
scalar RSUExampleScenario.node[0].appl 	meanClusterNodes 	4
scalar RSUExampleScenario.node[0].appl 	meanClusterHeadUtility 	16.867773023068
scalar RSUExampleScenario.node[0].appl 	NumberofCH 	0.054054054054054
scalar RSUExampleScenario.node[0].appl 	NumberofON 	0.27027027027027
scalar RSUExampleScenario.node[0].appl 	NumberofFN 	0.67567567567568
scalar RSUExampleScenario.node[0].veinsmobility 	startTime 	0.1
scalar RSUExampleScenario.node[0].veinsmobility 	totalTime 	449.9
scalar RSUExampleScenario.node[0].veinsmobility 	stopTime 	450
scalar RSUExampleScenario.node[0].veinsmobility 	minSpeed 	0
scalar RSUExampleScenario.node[0].veinsmobility 	maxSpeed 	13.999962790145
scalar RSUExampleScenario.node[0].veinsmobility 	totalDistance 	3134.970378569
scalar RSUExampleScenario.node[0].veinsmobility 	totalCO2Emission 	839.93073568576
scalar RSUExampleScenario.node[1].appl 	meanClusterNodes 	3.25
scalar RSUExampleScenario.node[1].appl 	meanClusterHeadUtility 	8.7135656545897
scalar RSUExampleScenario.node[1].appl 	NumberofCH 	0.10810810810811
scalar RSUExampleScenario.node[1].appl 	NumberofON 	0.24324324324324
scalar RSUExampleScenario.node[1].appl 	NumberofFN 	0.64864864864865
scalar RSUExampleScenario.node[1].veinsmobility 	startTime 	2.5
scalar RSUExampleScenario.node[1].veinsmobility 	totalTime 	447.5
scalar RSUExampleScenario.node[1].veinsmobility 	stopTime 	450
scalar RSUExampleScenario.node[1].veinsmobility 	minSpeed 	0
scalar RSUExampleScenario.node[1].veinsmobility 	maxSpeed 	13.999999619047
scalar RSUExampleScenario.node[1].veinsmobility 	totalDistance 	3082.507140036
scalar RSUExampleScenario.node[1].veinsmobility 	totalCO2Emission 	826.64792187574
scalar RSUExampleScenario.node[10].appl 	meanClusterNodes 	4
scalar RSUExampleScenario.node[10].appl 	meanClusterHeadUtility 	8.8859263703256
scalar RSUExampleScenario.node[10].appl 	NumberofCH 	0.10810810810811
scalar RSUExampleScenario.node[10].appl 	NumberofON 	0.45945945945946
scalar RSUExampleScenario.node[10].appl 	NumberofFN 	0.43243243243243
scalar RSUExampleScenario.node[10].veinsmobility 	startTime 	24.2
scalar RSUExampleScenario.node[10].veinsmobility 	totalTime 	425.8
scalar RSUExampleScenario.node[10].veinsmobility 	stopTime 	450
scalar RSUExampleScenario.node[10].veinsmobility 	minSpeed 	0
scalar RSUExampleScenario.node[10].veinsmobility 	maxSpeed 	13.999814240178
scalar RSUExampleScenario.node[10].veinsmobility 	totalDistance 	2793.6694194391
scalar RSUExampleScenario.node[10].veinsmobility 	totalCO2Emission 	759.4562662335
scalar RSUExampleScenario.node[11].appl 	meanClusterNodes 	8.5
scalar RSUExampleScenario.node[11].appl 	meanClusterHeadUtility 	17.146849492883
scalar RSUExampleScenario.node[11].appl 	NumberofCH 	0.054054054054054
scalar RSUExampleScenario.node[11].appl 	NumberofON 	0.40540540540541
scalar RSUExampleScenario.node[11].appl 	NumberofFN 	0.54054054054054
scalar RSUExampleScenario.node[11].veinsmobility 	startTime 	26.6
scalar RSUExampleScenario.node[11].veinsmobility 	totalTime 	423.4
scalar RSUExampleScenario.node[11].veinsmobility 	stopTime 	450
scalar RSUExampleScenario.node[11].veinsmobility 	minSpeed 	0
scalar RSUExampleScenario.node[11].veinsmobility 	maxSpeed 	13.999888179414
scalar RSUExampleScenario.node[11].veinsmobility 	totalDistance 	2752.9899437963
scalar RSUExampleScenario.node[11].veinsmobility 	totalCO2Emission 	753.85289378765
scalar RSUExampleScenario.node[12].appl 	meanClusterNodes 	4.5
scalar RSUExampleScenario.node[12].appl 	meanClusterHeadUtility 	16.164956485403
scalar RSUExampleScenario.node[12].appl 	NumberofCH 	0.054054054054054
scalar RSUExampleScenario.node[12].appl 	NumberofON 	0.24324324324324
scalar RSUExampleScenario.node[12].appl 	NumberofFN 	0.7027027027027
scalar RSUExampleScenario.node[12].veinsmobility 	startTime 	29
scalar RSUExampleScenario.node[12].veinsmobility 	totalTime 	421
scalar RSUExampleScenario.node[12].veinsmobility 	stopTime 	450
scalar RSUExampleScenario.node[12].veinsmobility 	minSpeed 	0
scalar RSUExampleScenario.node[12].veinsmobility 	maxSpeed 	13.999946879144
scalar RSUExampleScenario.node[12].veinsmobility 	totalDistance 	2723.8825601491
scalar RSUExampleScenario.node[12].veinsmobility 	totalCO2Emission 	745.39664736111
scalar RSUExampleScenario.node[13].appl 	meanClusterNodes 	5.5
scalar RSUExampleScenario.node[13].appl 	meanClusterHeadUtility 	16.803573672883
scalar RSUExampleScenario.node[13].appl 	NumberofCH 	0.054054054054054
scalar RSUExampleScenario.node[13].appl 	NumberofON 	0.45945945945946
scalar RSUExampleScenario.node[13].appl 	NumberofFN 	0.48648648648649
scalar RSUExampleScenario.node[13].veinsmobility 	startTime 	31.4
scalar RSUExampleScenario.node[13].veinsmobility 	totalTime 	418.6
scalar RSUExampleScenario.node[13].veinsmobility 	stopTime 	450
scalar RSUExampleScenario.node[13].veinsmobility 	minSpeed 	0
scalar RSUExampleScenario.node[13].veinsmobility 	maxSpeed 	13.99998679992
scalar RSUExampleScenario.node[13].veinsmobility 	totalDistance 	2680.792126799
scalar RSUExampleScenario.node[13].veinsmobility 	totalCO2Emission 	742.03036727174
scalar RSUExampleScenario.node[14].appl 	meanClusterNodes 	1
scalar RSUExampleScenario.node[14].appl 	meanClusterHeadUtility 	33.303180970077
scalar RSUExampleScenario.node[14].appl 	NumberofCH 	0.027027027027027
scalar RSUExampleScenario.node[14].appl 	NumberofON 	0.72972972972973
scalar RSUExampleScenario.node[14].appl 	NumberofFN 	0.24324324324324
scalar RSUExampleScenario.node[14].veinsmobility 	startTime 	33.8
scalar RSUExampleScenario.node[14].veinsmobility 	totalTime 	416.2
scalar RSUExampleScenario.node[14].veinsmobility 	stopTime 	450
scalar RSUExampleScenario.node[14].veinsmobility 	minSpeed 	0
scalar RSUExampleScenario.node[14].veinsmobility 	maxSpeed 	13.999995715991
scalar RSUExampleScenario.node[14].veinsmobility 	totalDistance 	2654.0755127259
scalar RSUExampleScenario.node[14].veinsmobility 	totalCO2Emission 	736.31181227833
scalar RSUExampleScenario.node[15].appl 	meanClusterNodes 	10
scalar RSUExampleScenario.node[15].appl 	meanClusterHeadUtility 	9.4133831350554
scalar RSUExampleScenario.node[15].appl 	NumberofCH 	0.10810810810811
scalar RSUExampleScenario.node[15].appl 	NumberofON 	0.62162162162162
scalar RSUExampleScenario.node[15].appl 	NumberofFN 	0.27027027027027
scalar RSUExampleScenario.node[15].veinsmobility 	startTime 	36.2
scalar RSUExampleScenario.node[15].veinsmobility 	totalTime 	413.8
scalar RSUExampleScenario.node[15].veinsmobility 	stopTime 	450
scalar RSUExampleScenario.node[15].veinsmobility 	minSpeed 	0
scalar RSUExampleScenario.node[15].veinsmobility 	maxSpeed 	13.999976285216
scalar RSUExampleScenario.node[15].veinsmobility 	totalDistance 	2613.9533321527
scalar RSUExampleScenario.node[15].veinsmobility 	totalCO2Emission 	728.61396515324
scalar RSUExampleScenario.node[16].appl 	meanClusterNodes 	5
scalar RSUExampleScenario.node[16].appl 	meanClusterHeadUtility 	9.114473645407
scalar RSUExampleScenario.node[16].appl 	NumberofCH 	0.10810810810811
scalar RSUExampleScenario.node[16].appl 	NumberofON 	0.67567567567568
scalar RSUExampleScenario.node[16].appl 	NumberofFN 	0.21621621621622
scalar RSUExampleScenario.node[16].veinsmobility 	startTime 	38.6
scalar RSUExampleScenario.node[16].veinsmobility 	totalTime 	411.4
scalar RSUExampleScenario.node[16].veinsmobility 	stopTime 	450
scalar RSUExampleScenario.node[16].veinsmobility 	minSpeed 	0
scalar RSUExampleScenario.node[16].veinsmobility 	maxSpeed 	13.999984700987
scalar RSUExampleScenario.node[16].veinsmobility 	totalDistance 	2583.5021200398
scalar RSUExampleScenario.node[16].veinsmobility 	totalCO2Emission 	722.83336026437
scalar RSUExampleScenario.node[17].appl 	meanClusterNodes 	0
scalar RSUExampleScenario.node[17].appl 	meanClusterHeadUtility 	0
scalar RSUExampleScenario.node[17].appl 	NumberofCH 	0
scalar RSUExampleScenario.node[17].appl 	NumberofON 	0.54054054054054
scalar RSUExampleScenario.node[17].appl 	NumberofFN 	0.45945945945946
scalar RSUExampleScenario.node[17].veinsmobility 	startTime 	41
scalar RSUExampleScenario.node[17].veinsmobility 	totalTime 	409
scalar RSUExampleScenario.node[17].veinsmobility 	stopTime 	450
scalar RSUExampleScenario.node[17].veinsmobility 	minSpeed 	0
scalar RSUExampleScenario.node[17].veinsmobility 	maxSpeed 	13.999972714593
scalar RSUExampleScenario.node[17].veinsmobility 	totalDistance 	2538.0862812951
scalar RSUExampleScenario.node[17].veinsmobility 	totalCO2Emission 	717.52676512892
scalar RSUExampleScenario.node[18].appl 	meanClusterNodes 	0
scalar RSUExampleScenario.node[18].appl 	meanClusterHeadUtility 	0
scalar RSUExampleScenario.node[18].appl 	NumberofCH 	0
scalar RSUExampleScenario.node[18].appl 	NumberofON 	0.7027027027027
scalar RSUExampleScenario.node[18].appl 	NumberofFN 	0.2972972972973
scalar RSUExampleScenario.node[18].veinsmobility 	startTime 	43.4
scalar RSUExampleScenario.node[18].veinsmobility 	totalTime 	406.6
scalar RSUExampleScenario.node[18].veinsmobility 	stopTime 	450
scalar RSUExampleScenario.node[18].veinsmobility 	minSpeed 	0
scalar RSUExampleScenario.node[18].veinsmobility 	maxSpeed 	13.99996186452
scalar RSUExampleScenario.node[18].veinsmobility 	totalDistance 	2510.3071630829
scalar RSUExampleScenario.node[18].veinsmobility 	totalCO2Emission 	713.05748317207
scalar RSUExampleScenario.node[19].appl 	meanClusterNodes 	9.5
scalar RSUExampleScenario.node[19].appl 	meanClusterHeadUtility 	16.035577051772
scalar RSUExampleScenario.node[19].appl 	NumberofCH 	0.054054054054054
scalar RSUExampleScenario.node[19].appl 	NumberofON 	0.48648648648649
scalar RSUExampleScenario.node[19].appl 	NumberofFN 	0.45945945945946
scalar RSUExampleScenario.node[19].veinsmobility 	startTime 	45.8
scalar RSUExampleScenario.node[19].veinsmobility 	totalTime 	404.2
scalar RSUExampleScenario.node[19].veinsmobility 	stopTime 	450
scalar RSUExampleScenario.node[19].veinsmobility 	minSpeed 	0
scalar RSUExampleScenario.node[19].veinsmobility 	maxSpeed 	13.999878046238
scalar RSUExampleScenario.node[19].veinsmobility 	totalDistance 	2471.3976988219
scalar RSUExampleScenario.node[19].veinsmobility 	totalCO2Emission 	705.62693088347
scalar RSUExampleScenario.node[2].appl 	meanClusterNodes 	3.25
scalar RSUExampleScenario.node[2].appl 	meanClusterHeadUtility 	9.0669076903472
scalar RSUExampleScenario.node[2].appl 	NumberofCH 	0.10810810810811
scalar RSUExampleScenario.node[2].appl 	NumberofON 	0.24324324324324
scalar RSUExampleScenario.node[2].appl 	NumberofFN 	0.64864864864865
scalar RSUExampleScenario.node[2].veinsmobility 	startTime 	4.9
scalar RSUExampleScenario.node[2].veinsmobility 	totalTime 	445.1
scalar RSUExampleScenario.node[2].veinsmobility 	stopTime 	450
scalar RSUExampleScenario.node[2].veinsmobility 	minSpeed 	0
scalar RSUExampleScenario.node[2].veinsmobility 	maxSpeed 	13.99994071292
scalar RSUExampleScenario.node[2].veinsmobility 	totalDistance 	3039.5816187879
scalar RSUExampleScenario.node[2].veinsmobility 	totalCO2Emission 	818.96971482171
scalar RSUExampleScenario.node[20].appl 	meanClusterNodes 	6.25
scalar RSUExampleScenario.node[20].appl 	meanClusterHeadUtility 	8.7567591642196
scalar RSUExampleScenario.node[20].appl 	NumberofCH 	0.10810810810811
scalar RSUExampleScenario.node[20].appl 	NumberofON 	0.45945945945946
scalar RSUExampleScenario.node[20].appl 	NumberofFN 	0.43243243243243
scalar RSUExampleScenario.node[20].veinsmobility 	startTime 	48.3
scalar RSUExampleScenario.node[20].veinsmobility 	totalTime 	401.7
scalar RSUExampleScenario.node[20].veinsmobility 	stopTime 	450
scalar RSUExampleScenario.node[20].veinsmobility 	minSpeed 	0
scalar RSUExampleScenario.node[20].veinsmobility 	maxSpeed 	13.999989102043
scalar RSUExampleScenario.node[20].veinsmobility 	totalDistance 	2442.9193488591
scalar RSUExampleScenario.node[20].veinsmobility 	totalCO2Emission 	701.17815904401
scalar RSUExampleScenario.node[21].appl 	meanClusterNodes 	1.25
scalar RSUExampleScenario.node[21].appl 	meanClusterHeadUtility 	9.1066069775406
scalar RSUExampleScenario.node[21].appl 	NumberofCH 	0.10810810810811
scalar RSUExampleScenario.node[21].appl 	NumberofON 	0.67567567567568
scalar RSUExampleScenario.node[21].appl 	NumberofFN 	0.21621621621622
scalar RSUExampleScenario.node[21].veinsmobility 	startTime 	50.7
scalar RSUExampleScenario.node[21].veinsmobility 	totalTime 	399.3
scalar RSUExampleScenario.node[21].veinsmobility 	stopTime 	450
scalar RSUExampleScenario.node[21].veinsmobility 	minSpeed 	0
scalar RSUExampleScenario.node[21].veinsmobility 	maxSpeed 	13.9998856106
scalar RSUExampleScenario.node[21].veinsmobility 	totalDistance 	2401.6706572866
scalar RSUExampleScenario.node[21].veinsmobility 	totalCO2Emission 	694.748006177
scalar RSUExampleScenario.node[22].appl 	meanClusterNodes 	12
scalar RSUExampleScenario.node[22].appl 	meanClusterHeadUtility 	8.4405133220513
scalar RSUExampleScenario.node[22].appl 	NumberofCH 	0.10810810810811
scalar RSUExampleScenario.node[22].appl 	NumberofON 	0.2972972972973
scalar RSUExampleScenario.node[22].appl 	NumberofFN 	0.59459459459459
scalar RSUExampleScenario.node[22].veinsmobility 	startTime 	53.1
scalar RSUExampleScenario.node[22].veinsmobility 	totalTime 	396.9
scalar RSUExampleScenario.node[22].veinsmobility 	stopTime 	450
scalar RSUExampleScenario.node[22].veinsmobility 	minSpeed 	0
scalar RSUExampleScenario.node[22].veinsmobility 	maxSpeed 	13.999921619664
scalar RSUExampleScenario.node[22].veinsmobility 	totalDistance 	2373.0277608798
scalar RSUExampleScenario.node[22].veinsmobility 	totalCO2Emission 	690.39671555445
scalar RSUExampleScenario.node[23].appl 	meanClusterNodes 	0
scalar RSUExampleScenario.node[23].appl 	meanClusterHeadUtility 	0
scalar RSUExampleScenario.node[23].appl 	NumberofCH 	0
scalar RSUExampleScenario.node[23].appl 	NumberofON 	0.64864864864865
scalar RSUExampleScenario.node[23].appl 	NumberofFN 	0.35135135135135
scalar RSUExampleScenario.node[23].veinsmobility 	startTime 	55.5
scalar RSUExampleScenario.node[23].veinsmobility 	totalTime 	394.5
scalar RSUExampleScenario.node[23].veinsmobility 	stopTime 	450
scalar RSUExampleScenario.node[23].veinsmobility 	minSpeed 	0
scalar RSUExampleScenario.node[23].veinsmobility 	maxSpeed 	13.999972189444
scalar RSUExampleScenario.node[23].veinsmobility 	totalDistance 	2334.0921271909
scalar RSUExampleScenario.node[23].veinsmobility 	totalCO2Emission 	686.91230864096
scalar RSUExampleScenario.node[24].appl 	meanClusterNodes 	12
scalar RSUExampleScenario.node[24].appl 	meanClusterHeadUtility 	16.87321331074
scalar RSUExampleScenario.node[24].appl 	NumberofCH 	0.054054054054054
scalar RSUExampleScenario.node[24].appl 	NumberofON 	0.27027027027027
scalar RSUExampleScenario.node[24].appl 	NumberofFN 	0.67567567567568
scalar RSUExampleScenario.node[24].veinsmobility 	startTime 	57.9
scalar RSUExampleScenario.node[24].veinsmobility 	totalTime 	392.1
scalar RSUExampleScenario.node[24].veinsmobility 	stopTime 	450
scalar RSUExampleScenario.node[24].veinsmobility 	minSpeed 	0
scalar RSUExampleScenario.node[24].veinsmobility 	maxSpeed 	13.999753568943
scalar RSUExampleScenario.node[24].veinsmobility 	totalDistance 	2306.4524042098
scalar RSUExampleScenario.node[24].veinsmobility 	totalCO2Emission 	677.34396223989
scalar RSUExampleScenario.node[25].appl 	meanClusterNodes 	3.5
scalar RSUExampleScenario.node[25].appl 	meanClusterHeadUtility 	16.99886801531
scalar RSUExampleScenario.node[25].appl 	NumberofCH 	0.054054054054054
scalar RSUExampleScenario.node[25].appl 	NumberofON 	0.59459459459459
scalar RSUExampleScenario.node[25].appl 	NumberofFN 	0.35135135135135
scalar RSUExampleScenario.node[25].veinsmobility 	startTime 	60.3
scalar RSUExampleScenario.node[25].veinsmobility 	totalTime 	389.7
scalar RSUExampleScenario.node[25].veinsmobility 	stopTime 	450
scalar RSUExampleScenario.node[25].veinsmobility 	minSpeed 	0
scalar RSUExampleScenario.node[25].veinsmobility 	maxSpeed 	13.999967459254
scalar RSUExampleScenario.node[25].veinsmobility 	totalDistance 	2267.7074684093
scalar RSUExampleScenario.node[25].veinsmobility 	totalCO2Emission 	674.48078608032
scalar RSUExampleScenario.node[26].appl 	meanClusterNodes 	4.5
scalar RSUExampleScenario.node[26].appl 	meanClusterHeadUtility 	16.060417639693
scalar RSUExampleScenario.node[26].appl 	NumberofCH 	0.054054054054054
scalar RSUExampleScenario.node[26].appl 	NumberofON 	0.64864864864865
scalar RSUExampleScenario.node[26].appl 	NumberofFN 	0.2972972972973
scalar RSUExampleScenario.node[26].veinsmobility 	startTime 	62.7
scalar RSUExampleScenario.node[26].veinsmobility 	totalTime 	387.3
scalar RSUExampleScenario.node[26].veinsmobility 	stopTime 	450
scalar RSUExampleScenario.node[26].veinsmobility 	minSpeed 	0
scalar RSUExampleScenario.node[26].veinsmobility 	maxSpeed 	13.999938577756
scalar RSUExampleScenario.node[26].veinsmobility 	totalDistance 	2238.4162629387
scalar RSUExampleScenario.node[26].veinsmobility 	totalCO2Emission 	667.97169104335
scalar RSUExampleScenario.node[27].appl 	meanClusterNodes 	6.5
scalar RSUExampleScenario.node[27].appl 	meanClusterHeadUtility 	17.537140021864
scalar RSUExampleScenario.node[27].appl 	NumberofCH 	0.054054054054054
scalar RSUExampleScenario.node[27].appl 	NumberofON 	0.67567567567568
scalar RSUExampleScenario.node[27].appl 	NumberofFN 	0.27027027027027
scalar RSUExampleScenario.node[27].veinsmobility 	startTime 	65.1
scalar RSUExampleScenario.node[27].veinsmobility 	totalTime 	384.9
scalar RSUExampleScenario.node[27].veinsmobility 	stopTime 	450
scalar RSUExampleScenario.node[27].veinsmobility 	minSpeed 	0
scalar RSUExampleScenario.node[27].veinsmobility 	maxSpeed 	13.999997644031
scalar RSUExampleScenario.node[27].veinsmobility 	totalDistance 	2199.8255540521
scalar RSUExampleScenario.node[27].veinsmobility 	totalCO2Emission 	659.85363109338
scalar RSUExampleScenario.node[28].appl 	meanClusterNodes 	8.5
scalar RSUExampleScenario.node[28].appl 	meanClusterHeadUtility 	16.631716523702
scalar RSUExampleScenario.node[28].appl 	NumberofCH 	0.054054054054054
scalar RSUExampleScenario.node[28].appl 	NumberofON 	0.51351351351351
scalar RSUExampleScenario.node[28].appl 	NumberofFN 	0.43243243243243
scalar RSUExampleScenario.node[28].veinsmobility 	startTime 	67.5
scalar RSUExampleScenario.node[28].veinsmobility 	totalTime 	382.5
scalar RSUExampleScenario.node[28].veinsmobility 	stopTime 	450
scalar RSUExampleScenario.node[28].veinsmobility 	minSpeed 	0
scalar RSUExampleScenario.node[28].veinsmobility 	maxSpeed 	13.999917093299
scalar RSUExampleScenario.node[28].veinsmobility 	totalDistance 	2169.3018408401
scalar RSUExampleScenario.node[28].veinsmobility 	totalCO2Emission 	656.38155438439
scalar RSUExampleScenario.node[29].appl 	meanClusterNodes 	13.5
scalar RSUExampleScenario.node[29].appl 	meanClusterHeadUtility 	16.914164657287
scalar RSUExampleScenario.node[29].appl 	NumberofCH 	0.054054054054054
scalar RSUExampleScenario.node[29].appl 	NumberofON 	0.35135135135135
scalar RSUExampleScenario.node[29].appl 	NumberofFN 	0.59459459459459
scalar RSUExampleScenario.node[29].veinsmobility 	startTime 	69.9
scalar RSUExampleScenario.node[29].veinsmobility 	totalTime 	380.1
scalar RSUExampleScenario.node[29].veinsmobility 	stopTime 	450
scalar RSUExampleScenario.node[29].veinsmobility 	minSpeed 	0
scalar RSUExampleScenario.node[29].veinsmobility 	maxSpeed 	13.999803333292
scalar RSUExampleScenario.node[29].veinsmobility 	totalDistance 	2133.7334034754
scalar RSUExampleScenario.node[29].veinsmobility 	totalCO2Emission 	653.30186891081
scalar RSUExampleScenario.node[3].appl 	meanClusterNodes 	7
scalar RSUExampleScenario.node[3].appl 	meanClusterHeadUtility 	17.822402949441
scalar RSUExampleScenario.node[3].appl 	NumberofCH 	0.054054054054054
scalar RSUExampleScenario.node[3].appl 	NumberofON 	0.2972972972973
scalar RSUExampleScenario.node[3].appl 	NumberofFN 	0.64864864864865
scalar RSUExampleScenario.node[3].veinsmobility 	startTime 	7.3
scalar RSUExampleScenario.node[3].veinsmobility 	totalTime 	442.7
scalar RSUExampleScenario.node[3].veinsmobility 	stopTime 	450
scalar RSUExampleScenario.node[3].veinsmobility 	minSpeed 	0
scalar RSUExampleScenario.node[3].veinsmobility 	maxSpeed 	13.999965598076
scalar RSUExampleScenario.node[3].veinsmobility 	totalDistance 	2995.4956457898
scalar RSUExampleScenario.node[3].veinsmobility 	totalCO2Emission 	815.10514854826
scalar RSUExampleScenario.node[30].appl 	meanClusterNodes 	9.5
scalar RSUExampleScenario.node[30].appl 	meanClusterHeadUtility 	16.582764731664
scalar RSUExampleScenario.node[30].appl 	NumberofCH 	0.054054054054054
scalar RSUExampleScenario.node[30].appl 	NumberofON 	0.56756756756757
scalar RSUExampleScenario.node[30].appl 	NumberofFN 	0.37837837837838
scalar RSUExampleScenario.node[30].veinsmobility 	startTime 	72.4
scalar RSUExampleScenario.node[30].veinsmobility 	totalTime 	377.6
scalar RSUExampleScenario.node[30].veinsmobility 	stopTime 	450
scalar RSUExampleScenario.node[30].veinsmobility 	minSpeed 	0
scalar RSUExampleScenario.node[30].veinsmobility 	maxSpeed 	13.999965618022
scalar RSUExampleScenario.node[30].veinsmobility 	totalDistance 	2100.1762707435
scalar RSUExampleScenario.node[30].veinsmobility 	totalCO2Emission 	643.2171137611
scalar RSUExampleScenario.node[31].appl 	meanClusterNodes 	5.5
scalar RSUExampleScenario.node[31].appl 	meanClusterHeadUtility 	8.8542690028646
scalar RSUExampleScenario.node[31].appl 	NumberofCH 	0.10810810810811
scalar RSUExampleScenario.node[31].appl 	NumberofON 	0.54054054054054
scalar RSUExampleScenario.node[31].appl 	NumberofFN 	0.35135135135135
scalar RSUExampleScenario.node[31].veinsmobility 	startTime 	74.8
scalar RSUExampleScenario.node[31].veinsmobility 	totalTime 	375.2
scalar RSUExampleScenario.node[31].veinsmobility 	stopTime 	450
scalar RSUExampleScenario.node[31].veinsmobility 	minSpeed 	0
scalar RSUExampleScenario.node[31].veinsmobility 	maxSpeed 	13.99982881957
scalar RSUExampleScenario.node[31].veinsmobility 	totalDistance 	2064.5811399114
scalar RSUExampleScenario.node[31].veinsmobility 	totalCO2Emission 	638.21917766187
scalar RSUExampleScenario.node[32].appl 	meanClusterNodes 	6
scalar RSUExampleScenario.node[32].appl 	meanClusterHeadUtility 	11.050952231061
scalar RSUExampleScenario.node[32].appl 	NumberofCH 	0.081081081081081
scalar RSUExampleScenario.node[32].appl 	NumberofON 	0.59459459459459
scalar RSUExampleScenario.node[32].appl 	NumberofFN 	0.32432432432432
scalar RSUExampleScenario.node[32].veinsmobility 	startTime 	77.2
scalar RSUExampleScenario.node[32].veinsmobility 	totalTime 	372.8
scalar RSUExampleScenario.node[32].veinsmobility 	stopTime 	450
scalar RSUExampleScenario.node[32].veinsmobility 	minSpeed 	0
scalar RSUExampleScenario.node[32].veinsmobility 	maxSpeed 	13.999997743613
scalar RSUExampleScenario.node[32].veinsmobility 	totalDistance 	2031.7271576931
scalar RSUExampleScenario.node[32].veinsmobility 	totalCO2Emission 	633.50659873128
scalar RSUExampleScenario.node[33].appl 	meanClusterNodes 	5
scalar RSUExampleScenario.node[33].appl 	meanClusterHeadUtility 	16.614498250082
scalar RSUExampleScenario.node[33].appl 	NumberofCH 	0.054054054054054
scalar RSUExampleScenario.node[33].appl 	NumberofON 	0.2972972972973
scalar RSUExampleScenario.node[33].appl 	NumberofFN 	0.64864864864865
scalar RSUExampleScenario.node[33].veinsmobility 	startTime 	79.6
scalar RSUExampleScenario.node[33].veinsmobility 	totalTime 	370.4
scalar RSUExampleScenario.node[33].veinsmobility 	stopTime 	450
scalar RSUExampleScenario.node[33].veinsmobility 	minSpeed 	0
scalar RSUExampleScenario.node[33].veinsmobility 	maxSpeed 	13.999906231754
scalar RSUExampleScenario.node[33].veinsmobility 	totalDistance 	1998.2777567392
scalar RSUExampleScenario.node[33].veinsmobility 	totalCO2Emission 	623.13612484136
scalar RSUExampleScenario.node[34].appl 	meanClusterNodes 	3
scalar RSUExampleScenario.node[34].appl 	meanClusterHeadUtility 	17.479347067532
scalar RSUExampleScenario.node[34].appl 	NumberofCH 	0.054054054054054
scalar RSUExampleScenario.node[34].appl 	NumberofON 	0.67567567567568
scalar RSUExampleScenario.node[34].appl 	NumberofFN 	0.27027027027027
scalar RSUExampleScenario.node[34].veinsmobility 	startTime 	82
scalar RSUExampleScenario.node[34].veinsmobility 	totalTime 	368
scalar RSUExampleScenario.node[34].veinsmobility 	stopTime 	450
scalar RSUExampleScenario.node[34].veinsmobility 	minSpeed 	0
scalar RSUExampleScenario.node[34].veinsmobility 	maxSpeed 	13.999967709237
scalar RSUExampleScenario.node[34].veinsmobility 	totalDistance 	1963.8729560472
scalar RSUExampleScenario.node[34].veinsmobility 	totalCO2Emission 	621.02167089163
scalar RSUExampleScenario.node[35].appl 	meanClusterNodes 	2.5
scalar RSUExampleScenario.node[35].appl 	meanClusterHeadUtility 	15.414813441301
scalar RSUExampleScenario.node[35].appl 	NumberofCH 	0.054054054054054
scalar RSUExampleScenario.node[35].appl 	NumberofON 	0.40540540540541
scalar RSUExampleScenario.node[35].appl 	NumberofFN 	0.54054054054054
scalar RSUExampleScenario.node[35].veinsmobility 	startTime 	84.4
scalar RSUExampleScenario.node[35].veinsmobility 	totalTime 	365.6
scalar RSUExampleScenario.node[35].veinsmobility 	stopTime 	450
scalar RSUExampleScenario.node[35].veinsmobility 	minSpeed 	0
scalar RSUExampleScenario.node[35].veinsmobility 	maxSpeed 	13.999841420585
scalar RSUExampleScenario.node[35].veinsmobility 	totalDistance 	1931.6198375684
scalar RSUExampleScenario.node[35].veinsmobility 	totalCO2Emission 	615.84159017302
scalar RSUExampleScenario.node[36].appl 	meanClusterNodes 	5.5
scalar RSUExampleScenario.node[36].appl 	meanClusterHeadUtility 	16.928080858789
scalar RSUExampleScenario.node[36].appl 	NumberofCH 	0.054054054054054
scalar RSUExampleScenario.node[36].appl 	NumberofON 	0.48648648648649
scalar RSUExampleScenario.node[36].appl 	NumberofFN 	0.45945945945946
scalar RSUExampleScenario.node[36].veinsmobility 	startTime 	86.8
scalar RSUExampleScenario.node[36].veinsmobility 	totalTime 	363.2
scalar RSUExampleScenario.node[36].veinsmobility 	stopTime 	450
scalar RSUExampleScenario.node[36].veinsmobility 	minSpeed 	0
scalar RSUExampleScenario.node[36].veinsmobility 	maxSpeed 	13.999918499307
scalar RSUExampleScenario.node[36].veinsmobility 	totalDistance 	1898.0475344934
scalar RSUExampleScenario.node[36].veinsmobility 	totalCO2Emission 	610.55049273701
scalar RSUExampleScenario.node[37].appl 	meanClusterNodes 	11
scalar RSUExampleScenario.node[37].appl 	meanClusterHeadUtility 	16.937185654012
scalar RSUExampleScenario.node[37].appl 	NumberofCH 	0.054054054054054
scalar RSUExampleScenario.node[37].appl 	NumberofON 	0.56756756756757
scalar RSUExampleScenario.node[37].appl 	NumberofFN 	0.37837837837838
scalar RSUExampleScenario.node[37].veinsmobility 	startTime 	89.2
scalar RSUExampleScenario.node[37].veinsmobility 	totalTime 	360.8
scalar RSUExampleScenario.node[37].veinsmobility 	stopTime 	450
scalar RSUExampleScenario.node[37].veinsmobility 	minSpeed 	0
scalar RSUExampleScenario.node[37].veinsmobility 	maxSpeed 	13.999679507213
scalar RSUExampleScenario.node[37].veinsmobility 	totalDistance 	1864.1791337782
scalar RSUExampleScenario.node[37].veinsmobility 	totalCO2Emission 	603.69088799476
scalar RSUExampleScenario.node[38].appl 	meanClusterNodes 	0
scalar RSUExampleScenario.node[38].appl 	meanClusterHeadUtility 	0
scalar RSUExampleScenario.node[38].appl 	NumberofCH 	0
scalar RSUExampleScenario.node[38].appl 	NumberofON 	0.43243243243243
scalar RSUExampleScenario.node[38].appl 	NumberofFN 	0.56756756756757
scalar RSUExampleScenario.node[38].veinsmobility 	startTime 	91.6
scalar RSUExampleScenario.node[38].veinsmobility 	totalTime 	358.4
scalar RSUExampleScenario.node[38].veinsmobility 	stopTime 	450
scalar RSUExampleScenario.node[38].veinsmobility 	minSpeed 	0
scalar RSUExampleScenario.node[38].veinsmobility 	maxSpeed 	13.999945306268
scalar RSUExampleScenario.node[38].veinsmobility 	totalDistance 	1830.9108194908
scalar RSUExampleScenario.node[38].veinsmobility 	totalCO2Emission 	600.81961514045
scalar RSUExampleScenario.node[39].appl 	meanClusterNodes 	9
scalar RSUExampleScenario.node[39].appl 	meanClusterHeadUtility 	17.650539283295
scalar RSUExampleScenario.node[39].appl 	NumberofCH 	0.054054054054054
scalar RSUExampleScenario.node[39].appl 	NumberofON 	0.37837837837838
scalar RSUExampleScenario.node[39].appl 	NumberofFN 	0.56756756756757
scalar RSUExampleScenario.node[39].veinsmobility 	startTime 	94
scalar RSUExampleScenario.node[39].veinsmobility 	totalTime 	356
scalar RSUExampleScenario.node[39].veinsmobility 	stopTime 	450
scalar RSUExampleScenario.node[39].veinsmobility 	minSpeed 	0
scalar RSUExampleScenario.node[39].veinsmobility 	maxSpeed 	13.9998252573
scalar RSUExampleScenario.node[39].veinsmobility 	totalDistance 	1796.7283784648
scalar RSUExampleScenario.node[39].veinsmobility 	totalCO2Emission 	590.30778413766
scalar RSUExampleScenario.node[4].appl 	meanClusterNodes 	0
scalar RSUExampleScenario.node[4].appl 	meanClusterHeadUtility 	0
scalar RSUExampleScenario.node[4].appl 	NumberofCH 	0
scalar RSUExampleScenario.node[4].appl 	NumberofON 	0.51351351351351
scalar RSUExampleScenario.node[4].appl 	NumberofFN 	0.48648648648649
scalar RSUExampleScenario.node[4].veinsmobility 	startTime 	9.7
scalar RSUExampleScenario.node[4].veinsmobility 	totalTime 	440.3
scalar RSUExampleScenario.node[4].veinsmobility 	stopTime 	450
scalar RSUExampleScenario.node[4].veinsmobility 	minSpeed 	0
scalar RSUExampleScenario.node[4].veinsmobility 	maxSpeed 	13.999906522841
scalar RSUExampleScenario.node[4].veinsmobility 	totalDistance 	2951.6216550845
scalar RSUExampleScenario.node[4].veinsmobility 	totalCO2Emission 	800.23583037233
scalar RSUExampleScenario.node[40].appl 	meanClusterNodes 	6
scalar RSUExampleScenario.node[40].appl 	meanClusterHeadUtility 	8.3606020681061
scalar RSUExampleScenario.node[40].appl 	NumberofCH 	0.10810810810811
scalar RSUExampleScenario.node[40].appl 	NumberofON 	0.59459459459459
scalar RSUExampleScenario.node[40].appl 	NumberofFN 	0.2972972972973
scalar RSUExampleScenario.node[40].veinsmobility 	startTime 	96.5
scalar RSUExampleScenario.node[40].veinsmobility 	totalTime 	353.5
scalar RSUExampleScenario.node[40].veinsmobility 	stopTime 	450
scalar RSUExampleScenario.node[40].veinsmobility 	minSpeed 	0
scalar RSUExampleScenario.node[40].veinsmobility 	maxSpeed 	13.999913104402
scalar RSUExampleScenario.node[40].veinsmobility 	totalDistance 	1763.9882674904
scalar RSUExampleScenario.node[40].veinsmobility 	totalCO2Emission 	588.3087871312
scalar RSUExampleScenario.node[41].appl 	meanClusterNodes 	6
scalar RSUExampleScenario.node[41].appl 	meanClusterHeadUtility 	16.42948333708
scalar RSUExampleScenario.node[41].appl 	NumberofCH 	0.054054054054054
scalar RSUExampleScenario.node[41].appl 	NumberofON 	0.67567567567568
scalar RSUExampleScenario.node[41].appl 	NumberofFN 	0.27027027027027
scalar RSUExampleScenario.node[41].veinsmobility 	startTime 	98.9
scalar RSUExampleScenario.node[41].veinsmobility 	totalTime 	351.1
scalar RSUExampleScenario.node[41].veinsmobility 	stopTime 	450
scalar RSUExampleScenario.node[41].veinsmobility 	minSpeed 	0
scalar RSUExampleScenario.node[41].veinsmobility 	maxSpeed 	13.999794543651
scalar RSUExampleScenario.node[41].veinsmobility 	totalDistance 	1727.3806676956
scalar RSUExampleScenario.node[41].veinsmobility 	totalCO2Emission 	579.52307308987
scalar RSUExampleScenario.node[42].appl 	meanClusterNodes 	6.5
scalar RSUExampleScenario.node[42].appl 	meanClusterHeadUtility 	17.06083144339
scalar RSUExampleScenario.node[42].appl 	NumberofCH 	0.054054054054054
scalar RSUExampleScenario.node[42].appl 	NumberofON 	0.54054054054054
scalar RSUExampleScenario.node[42].appl 	NumberofFN 	0.40540540540541
scalar RSUExampleScenario.node[42].veinsmobility 	startTime 	101.3
scalar RSUExampleScenario.node[42].veinsmobility 	totalTime 	348.7
scalar RSUExampleScenario.node[42].veinsmobility 	stopTime 	450
scalar RSUExampleScenario.node[42].veinsmobility 	minSpeed 	0
scalar RSUExampleScenario.node[42].veinsmobility 	maxSpeed 	13.999759946801
scalar RSUExampleScenario.node[42].veinsmobility 	totalDistance 	1695.6226185787
scalar RSUExampleScenario.node[42].veinsmobility 	totalCO2Emission 	574.70668393556
scalar RSUExampleScenario.node[43].appl 	meanClusterNodes 	4.5
scalar RSUExampleScenario.node[43].appl 	meanClusterHeadUtility 	16.195548747203
scalar RSUExampleScenario.node[43].appl 	NumberofCH 	0.054054054054054
scalar RSUExampleScenario.node[43].appl 	NumberofON 	0.67567567567568
scalar RSUExampleScenario.node[43].appl 	NumberofFN 	0.27027027027027
scalar RSUExampleScenario.node[43].veinsmobility 	startTime 	103.7
scalar RSUExampleScenario.node[43].veinsmobility 	totalTime 	346.3
scalar RSUExampleScenario.node[43].veinsmobility 	stopTime 	450
scalar RSUExampleScenario.node[43].veinsmobility 	minSpeed 	0
scalar RSUExampleScenario.node[43].veinsmobility 	maxSpeed 	13.999591313845
scalar RSUExampleScenario.node[43].veinsmobility 	totalDistance 	1663.084790123
scalar RSUExampleScenario.node[43].veinsmobility 	totalCO2Emission 	569.6056946144
scalar RSUExampleScenario.node[44].appl 	meanClusterNodes 	4
scalar RSUExampleScenario.node[44].appl 	meanClusterHeadUtility 	7.9031851507479
scalar RSUExampleScenario.node[44].appl 	NumberofCH 	0.10810810810811
scalar RSUExampleScenario.node[44].appl 	NumberofON 	0.7027027027027
scalar RSUExampleScenario.node[44].appl 	NumberofFN 	0.18918918918919
scalar RSUExampleScenario.node[44].veinsmobility 	startTime 	106.1
scalar RSUExampleScenario.node[44].veinsmobility 	totalTime 	343.9
scalar RSUExampleScenario.node[44].veinsmobility 	stopTime 	450
scalar RSUExampleScenario.node[44].veinsmobility 	minSpeed 	0
scalar RSUExampleScenario.node[44].veinsmobility 	maxSpeed 	13.999997264198
scalar RSUExampleScenario.node[44].veinsmobility 	totalDistance 	1628.6246982331
scalar RSUExampleScenario.node[44].veinsmobility 	totalCO2Emission 	564.90608938477
scalar RSUExampleScenario.node[45].appl 	meanClusterNodes 	6.5
scalar RSUExampleScenario.node[45].appl 	meanClusterHeadUtility 	8.196736561024
scalar RSUExampleScenario.node[45].appl 	NumberofCH 	0.10810810810811
scalar RSUExampleScenario.node[45].appl 	NumberofON 	0.51351351351351
scalar RSUExampleScenario.node[45].appl 	NumberofFN 	0.37837837837838
scalar RSUExampleScenario.node[45].veinsmobility 	startTime 	108.5
scalar RSUExampleScenario.node[45].veinsmobility 	totalTime 	341.5
scalar RSUExampleScenario.node[45].veinsmobility 	stopTime 	450
scalar RSUExampleScenario.node[45].veinsmobility 	minSpeed 	0
scalar RSUExampleScenario.node[45].veinsmobility 	maxSpeed 	13.999980098528
scalar RSUExampleScenario.node[45].veinsmobility 	totalDistance 	1595.1955942617
scalar RSUExampleScenario.node[45].veinsmobility 	totalCO2Emission 	559.23316525577
scalar RSUExampleScenario.node[46].appl 	meanClusterNodes 	0
scalar RSUExampleScenario.node[46].appl 	meanClusterHeadUtility 	0
scalar RSUExampleScenario.node[46].appl 	NumberofCH 	0
scalar RSUExampleScenario.node[46].appl 	NumberofON 	0.35135135135135
scalar RSUExampleScenario.node[46].appl 	NumberofFN 	0.64864864864865
scalar RSUExampleScenario.node[46].veinsmobility 	startTime 	110.9
scalar RSUExampleScenario.node[46].veinsmobility 	totalTime 	339.1
scalar RSUExampleScenario.node[46].veinsmobility 	stopTime 	450
scalar RSUExampleScenario.node[46].veinsmobility 	minSpeed 	0
scalar RSUExampleScenario.node[46].veinsmobility 	maxSpeed 	13.999862984587
scalar RSUExampleScenario.node[46].veinsmobility 	totalDistance 	1562.0092767973
scalar RSUExampleScenario.node[46].veinsmobility 	totalCO2Emission 	551.08557505093
scalar RSUExampleScenario.node[47].appl 	meanClusterNodes 	9.5
scalar RSUExampleScenario.node[47].appl 	meanClusterHeadUtility 	8.6163248399288
scalar RSUExampleScenario.node[47].appl 	NumberofCH 	0.10810810810811
scalar RSUExampleScenario.node[47].appl 	NumberofON 	0.37837837837838
scalar RSUExampleScenario.node[47].appl 	NumberofFN 	0.51351351351351
scalar RSUExampleScenario.node[47].veinsmobility 	startTime 	113.3
scalar RSUExampleScenario.node[47].veinsmobility 	totalTime 	336.7
scalar RSUExampleScenario.node[47].veinsmobility 	stopTime 	450
scalar RSUExampleScenario.node[47].veinsmobility 	minSpeed 	0
scalar RSUExampleScenario.node[47].veinsmobility 	maxSpeed 	13.999901269469
scalar RSUExampleScenario.node[47].veinsmobility 	totalDistance 	1527.8693556831
scalar RSUExampleScenario.node[47].veinsmobility 	totalCO2Emission 	548.80650701101
scalar RSUExampleScenario.node[48].appl 	meanClusterNodes 	7
scalar RSUExampleScenario.node[48].appl 	meanClusterHeadUtility 	34.027608269784
scalar RSUExampleScenario.node[48].appl 	NumberofCH 	0.027027027027027
scalar RSUExampleScenario.node[48].appl 	NumberofON 	0.56756756756757
scalar RSUExampleScenario.node[48].appl 	NumberofFN 	0.40540540540541
scalar RSUExampleScenario.node[48].veinsmobility 	startTime 	115.7
scalar RSUExampleScenario.node[48].veinsmobility 	totalTime 	334.3
scalar RSUExampleScenario.node[48].veinsmobility 	stopTime 	450
scalar RSUExampleScenario.node[48].veinsmobility 	minSpeed 	0
scalar RSUExampleScenario.node[48].veinsmobility 	maxSpeed 	13.999997147848
scalar RSUExampleScenario.node[48].veinsmobility 	totalDistance 	1495.5541385986
scalar RSUExampleScenario.node[48].veinsmobility 	totalCO2Emission 	542.01212317808
scalar RSUExampleScenario.node[49].appl 	meanClusterNodes 	8
scalar RSUExampleScenario.node[49].appl 	meanClusterHeadUtility 	16.676678707213
scalar RSUExampleScenario.node[49].appl 	NumberofCH 	0.054054054054054
scalar RSUExampleScenario.node[49].appl 	NumberofON 	0.67567567567568
scalar RSUExampleScenario.node[49].appl 	NumberofFN 	0.27027027027027
scalar RSUExampleScenario.node[49].veinsmobility 	startTime 	118.1
scalar RSUExampleScenario.node[49].veinsmobility 	totalTime 	331.9
scalar RSUExampleScenario.node[49].veinsmobility 	stopTime 	450
scalar RSUExampleScenario.node[49].veinsmobility 	minSpeed 	0
scalar RSUExampleScenario.node[49].veinsmobility 	maxSpeed 	13.999860952666
scalar RSUExampleScenario.node[49].veinsmobility 	totalDistance 	1460.3713306817
scalar RSUExampleScenario.node[49].veinsmobility 	totalCO2Emission 	535.53668102323
scalar RSUExampleScenario.node[5].appl 	meanClusterNodes 	4
scalar RSUExampleScenario.node[5].appl 	meanClusterHeadUtility 	16.455781142222
scalar RSUExampleScenario.node[5].appl 	NumberofCH 	0.054054054054054
scalar RSUExampleScenario.node[5].appl 	NumberofON 	0.48648648648649
scalar RSUExampleScenario.node[5].appl 	NumberofFN 	0.45945945945946
scalar RSUExampleScenario.node[5].veinsmobility 	startTime 	12.1
scalar RSUExampleScenario.node[5].veinsmobility 	totalTime 	437.9
scalar RSUExampleScenario.node[5].veinsmobility 	stopTime 	450
scalar RSUExampleScenario.node[5].veinsmobility 	minSpeed 	0
scalar RSUExampleScenario.node[5].veinsmobility 	maxSpeed 	13.999937982142
scalar RSUExampleScenario.node[5].veinsmobility 	totalDistance 	2914.593616568
scalar RSUExampleScenario.node[5].veinsmobility 	totalCO2Emission 	788.19245545347
scalar RSUExampleScenario.node[50].appl 	meanClusterNodes 	10.5
scalar RSUExampleScenario.node[50].appl 	meanClusterHeadUtility 	17.370815668332
scalar RSUExampleScenario.node[50].appl 	NumberofCH 	0.054054054054054
scalar RSUExampleScenario.node[50].appl 	NumberofON 	0.27027027027027
scalar RSUExampleScenario.node[50].appl 	NumberofFN 	0.67567567567568
scalar RSUExampleScenario.node[50].veinsmobility 	startTime 	120.6
scalar RSUExampleScenario.node[50].veinsmobility 	totalTime 	329.4
scalar RSUExampleScenario.node[50].veinsmobility 	stopTime 	450
scalar RSUExampleScenario.node[50].veinsmobility 	minSpeed 	0
scalar RSUExampleScenario.node[50].veinsmobility 	maxSpeed 	13.999974855478
scalar RSUExampleScenario.node[50].veinsmobility 	totalDistance 	1429.2119834806
scalar RSUExampleScenario.node[50].veinsmobility 	totalCO2Emission 	532.49254242063
scalar RSUExampleScenario.node[51].appl 	meanClusterNodes 	10
scalar RSUExampleScenario.node[51].appl 	meanClusterHeadUtility 	17.292564883562
scalar RSUExampleScenario.node[51].appl 	NumberofCH 	0.054054054054054
scalar RSUExampleScenario.node[51].appl 	NumberofON 	0.48648648648649
scalar RSUExampleScenario.node[51].appl 	NumberofFN 	0.45945945945946
scalar RSUExampleScenario.node[51].veinsmobility 	startTime 	123
scalar RSUExampleScenario.node[51].veinsmobility 	totalTime 	327
scalar RSUExampleScenario.node[51].veinsmobility 	stopTime 	450
scalar RSUExampleScenario.node[51].veinsmobility 	minSpeed 	0
scalar RSUExampleScenario.node[51].veinsmobility 	maxSpeed 	13.999824979107
scalar RSUExampleScenario.node[51].veinsmobility 	totalDistance 	1395.4552044568
scalar RSUExampleScenario.node[51].veinsmobility 	totalCO2Emission 	526.15811653074
scalar RSUExampleScenario.node[52].appl 	meanClusterNodes 	9
scalar RSUExampleScenario.node[52].appl 	meanClusterHeadUtility 	16.100316003208
scalar RSUExampleScenario.node[52].appl 	NumberofCH 	0.054054054054054
scalar RSUExampleScenario.node[52].appl 	NumberofON 	0.56756756756757
scalar RSUExampleScenario.node[52].appl 	NumberofFN 	0.37837837837838
scalar RSUExampleScenario.node[52].veinsmobility 	startTime 	125.4
scalar RSUExampleScenario.node[52].veinsmobility 	totalTime 	324.6
scalar RSUExampleScenario.node[52].veinsmobility 	stopTime 	450
scalar RSUExampleScenario.node[52].veinsmobility 	minSpeed 	0
scalar RSUExampleScenario.node[52].veinsmobility 	maxSpeed 	13.999953767289
scalar RSUExampleScenario.node[52].veinsmobility 	totalDistance 	1361.405189785
scalar RSUExampleScenario.node[52].veinsmobility 	totalCO2Emission 	519.51612943811
scalar RSUExampleScenario.node[53].appl 	meanClusterNodes 	12
scalar RSUExampleScenario.node[53].appl 	meanClusterHeadUtility 	17.271138467984
scalar RSUExampleScenario.node[53].appl 	NumberofCH 	0.054054054054054
scalar RSUExampleScenario.node[53].appl 	NumberofON 	0.35135135135135
scalar RSUExampleScenario.node[53].appl 	NumberofFN 	0.59459459459459
scalar RSUExampleScenario.node[53].veinsmobility 	startTime 	127.8
scalar RSUExampleScenario.node[53].veinsmobility 	totalTime 	322.2
scalar RSUExampleScenario.node[53].veinsmobility 	stopTime 	450
scalar RSUExampleScenario.node[53].veinsmobility 	minSpeed 	0
scalar RSUExampleScenario.node[53].veinsmobility 	maxSpeed 	13.999944478499
scalar RSUExampleScenario.node[53].veinsmobility 	totalDistance 	1327.9349972547
scalar RSUExampleScenario.node[53].veinsmobility 	totalCO2Emission 	514.40051243907
scalar RSUExampleScenario.node[54].appl 	meanClusterNodes 	8
scalar RSUExampleScenario.node[54].appl 	meanClusterHeadUtility 	17.420997411214
scalar RSUExampleScenario.node[54].appl 	NumberofCH 	0.054054054054054
scalar RSUExampleScenario.node[54].appl 	NumberofON 	0.7027027027027
scalar RSUExampleScenario.node[54].appl 	NumberofFN 	0.24324324324324
scalar RSUExampleScenario.node[54].veinsmobility 	startTime 	130.2
scalar RSUExampleScenario.node[54].veinsmobility 	totalTime 	319.8
scalar RSUExampleScenario.node[54].veinsmobility 	stopTime 	450
scalar RSUExampleScenario.node[54].veinsmobility 	minSpeed 	0
scalar RSUExampleScenario.node[54].veinsmobility 	maxSpeed 	13.999927303507
scalar RSUExampleScenario.node[54].veinsmobility 	totalDistance 	1292.9484251223
scalar RSUExampleScenario.node[54].veinsmobility 	totalCO2Emission 	508.42721704854
scalar RSUExampleScenario.node[55].appl 	meanClusterNodes 	4
scalar RSUExampleScenario.node[55].appl 	meanClusterHeadUtility 	8.8773052143843
scalar RSUExampleScenario.node[55].appl 	NumberofCH 	0.10810810810811
scalar RSUExampleScenario.node[55].appl 	NumberofON 	0.7027027027027
scalar RSUExampleScenario.node[55].appl 	NumberofFN 	0.18918918918919
scalar RSUExampleScenario.node[55].veinsmobility 	startTime 	132.6
scalar RSUExampleScenario.node[55].veinsmobility 	totalTime 	317.4
scalar RSUExampleScenario.node[55].veinsmobility 	stopTime 	450
scalar RSUExampleScenario.node[55].veinsmobility 	minSpeed 	0
scalar RSUExampleScenario.node[55].veinsmobility 	maxSpeed 	13.99980880084
scalar RSUExampleScenario.node[55].veinsmobility 	totalDistance 	1259.0045862746
scalar RSUExampleScenario.node[55].veinsmobility 	totalCO2Emission 	505.18649075909
scalar RSUExampleScenario.node[56].appl 	meanClusterNodes 	5.5
scalar RSUExampleScenario.node[56].appl 	meanClusterHeadUtility 	17.476853373914
scalar RSUExampleScenario.node[56].appl 	NumberofCH 	0.054054054054054
scalar RSUExampleScenario.node[56].appl 	NumberofON 	0.43243243243243
scalar RSUExampleScenario.node[56].appl 	NumberofFN 	0.51351351351351
scalar RSUExampleScenario.node[56].veinsmobility 	startTime 	135
scalar RSUExampleScenario.node[56].veinsmobility 	totalTime 	315
scalar RSUExampleScenario.node[56].veinsmobility 	stopTime 	450
scalar RSUExampleScenario.node[56].veinsmobility 	minSpeed 	0
scalar RSUExampleScenario.node[56].veinsmobility 	maxSpeed 	13.999989133915
scalar RSUExampleScenario.node[56].veinsmobility 	totalDistance 	1223.5671958459
scalar RSUExampleScenario.node[56].veinsmobility 	totalCO2Emission 	496.03913324724
scalar RSUExampleScenario.node[57].appl 	meanClusterNodes 	5.5
scalar RSUExampleScenario.node[57].appl 	meanClusterHeadUtility 	15.89288475626
scalar RSUExampleScenario.node[57].appl 	NumberofCH 	0.054054054054054
scalar RSUExampleScenario.node[57].appl 	NumberofON 	0.59459459459459
scalar RSUExampleScenario.node[57].appl 	NumberofFN 	0.35135135135135
scalar RSUExampleScenario.node[57].veinsmobility 	startTime 	137.4
scalar RSUExampleScenario.node[57].veinsmobility 	totalTime 	312.6
scalar RSUExampleScenario.node[57].veinsmobility 	stopTime 	450
scalar RSUExampleScenario.node[57].veinsmobility 	minSpeed 	0
scalar RSUExampleScenario.node[57].veinsmobility 	maxSpeed 	13.999845441899
scalar RSUExampleScenario.node[57].veinsmobility 	totalDistance 	1191.2893103348
scalar RSUExampleScenario.node[57].veinsmobility 	totalCO2Emission 	492.64504299414
scalar RSUExampleScenario.node[58].appl 	meanClusterNodes 	4
scalar RSUExampleScenario.node[58].appl 	meanClusterHeadUtility 	8.6703898059786
scalar RSUExampleScenario.node[58].appl 	NumberofCH 	0.10810810810811
scalar RSUExampleScenario.node[58].appl 	NumberofON 	0.54054054054054
scalar RSUExampleScenario.node[58].appl 	NumberofFN 	0.35135135135135
scalar RSUExampleScenario.node[58].veinsmobility 	startTime 	139.8
scalar RSUExampleScenario.node[58].veinsmobility 	totalTime 	310.2
scalar RSUExampleScenario.node[58].veinsmobility 	stopTime 	450
scalar RSUExampleScenario.node[58].veinsmobility 	minSpeed 	0
scalar RSUExampleScenario.node[58].veinsmobility 	maxSpeed 	13.999507275545
scalar RSUExampleScenario.node[58].veinsmobility 	totalDistance 	1156.6235523511
scalar RSUExampleScenario.node[58].veinsmobility 	totalCO2Emission 	485.73226851672
scalar RSUExampleScenario.node[59].appl 	meanClusterNodes 	7.5
scalar RSUExampleScenario.node[59].appl 	meanClusterHeadUtility 	16.404904657791
scalar RSUExampleScenario.node[59].appl 	NumberofCH 	0.054054054054054
scalar RSUExampleScenario.node[59].appl 	NumberofON 	0.45945945945946
scalar RSUExampleScenario.node[59].appl 	NumberofFN 	0.48648648648649
scalar RSUExampleScenario.node[59].veinsmobility 	startTime 	142.2
scalar RSUExampleScenario.node[59].veinsmobility 	totalTime 	307.8
scalar RSUExampleScenario.node[59].veinsmobility 	stopTime 	450
scalar RSUExampleScenario.node[59].veinsmobility 	minSpeed 	0
scalar RSUExampleScenario.node[59].veinsmobility 	maxSpeed 	13.999468766013
scalar RSUExampleScenario.node[59].veinsmobility 	totalDistance 	1123.9960726825
scalar RSUExampleScenario.node[59].veinsmobility 	totalCO2Emission 	476.70557209393
scalar RSUExampleScenario.node[6].appl 	meanClusterNodes 	6.75
scalar RSUExampleScenario.node[6].appl 	meanClusterHeadUtility 	9.9571868686958
scalar RSUExampleScenario.node[6].appl 	NumberofCH 	0.10810810810811
scalar RSUExampleScenario.node[6].appl 	NumberofON 	0.16216216216216
scalar RSUExampleScenario.node[6].appl 	NumberofFN 	0.72972972972973
scalar RSUExampleScenario.node[6].veinsmobility 	startTime 	14.5
scalar RSUExampleScenario.node[6].veinsmobility 	totalTime 	435.5
scalar RSUExampleScenario.node[6].veinsmobility 	stopTime 	450
scalar RSUExampleScenario.node[6].veinsmobility 	minSpeed 	0
scalar RSUExampleScenario.node[6].veinsmobility 	maxSpeed 	13.999855622838
scalar RSUExampleScenario.node[6].veinsmobility 	totalDistance 	2906.3267124762
scalar RSUExampleScenario.node[6].veinsmobility 	totalCO2Emission 	778.59380103605
scalar RSUExampleScenario.node[60].appl 	meanClusterNodes 	6
scalar RSUExampleScenario.node[60].appl 	meanClusterHeadUtility 	8.8439943982897
scalar RSUExampleScenario.node[60].appl 	NumberofCH 	0.10810810810811
scalar RSUExampleScenario.node[60].appl 	NumberofON 	0.54054054054054
scalar RSUExampleScenario.node[60].appl 	NumberofFN 	0.35135135135135
scalar RSUExampleScenario.node[60].veinsmobility 	startTime 	144.7
scalar RSUExampleScenario.node[60].veinsmobility 	totalTime 	305.3
scalar RSUExampleScenario.node[60].veinsmobility 	stopTime 	450
scalar RSUExampleScenario.node[60].veinsmobility 	minSpeed 	0
scalar RSUExampleScenario.node[60].veinsmobility 	maxSpeed 	13.999976115443
scalar RSUExampleScenario.node[60].veinsmobility 	totalDistance 	1091.2915449207
scalar RSUExampleScenario.node[60].veinsmobility 	totalCO2Emission 	472.33499134868
scalar RSUExampleScenario.node[61].appl 	meanClusterNodes 	0
scalar RSUExampleScenario.node[61].appl 	meanClusterHeadUtility 	0
scalar RSUExampleScenario.node[61].appl 	NumberofCH 	0
scalar RSUExampleScenario.node[61].appl 	NumberofON 	0.67567567567568
scalar RSUExampleScenario.node[61].appl 	NumberofFN 	0.32432432432432
scalar RSUExampleScenario.node[61].veinsmobility 	startTime 	147.1
scalar RSUExampleScenario.node[61].veinsmobility 	totalTime 	302.9
scalar RSUExampleScenario.node[61].veinsmobility 	stopTime 	450
scalar RSUExampleScenario.node[61].veinsmobility 	minSpeed 	0
scalar RSUExampleScenario.node[61].veinsmobility 	maxSpeed 	13.999934373412
scalar RSUExampleScenario.node[61].veinsmobility 	totalDistance 	1056.4203568238
scalar RSUExampleScenario.node[61].veinsmobility 	totalCO2Emission 	467.09306858301
scalar RSUExampleScenario.node[62].appl 	meanClusterNodes 	0
scalar RSUExampleScenario.node[62].appl 	meanClusterHeadUtility 	0
scalar RSUExampleScenario.node[62].appl 	NumberofCH 	0
scalar RSUExampleScenario.node[62].appl 	NumberofON 	0.64864864864865
scalar RSUExampleScenario.node[62].appl 	NumberofFN 	0.35135135135135
scalar RSUExampleScenario.node[62].veinsmobility 	startTime 	149.5
scalar RSUExampleScenario.node[62].veinsmobility 	totalTime 	300.5
scalar RSUExampleScenario.node[62].veinsmobility 	stopTime 	450
scalar RSUExampleScenario.node[62].veinsmobility 	minSpeed 	0
scalar RSUExampleScenario.node[62].veinsmobility 	maxSpeed 	13.999697395319
scalar RSUExampleScenario.node[62].veinsmobility 	totalDistance 	1023.2190113561
scalar RSUExampleScenario.node[62].veinsmobility 	totalCO2Emission 	461.811210836
scalar RSUExampleScenario.node[63].appl 	meanClusterNodes 	1.5
scalar RSUExampleScenario.node[63].appl 	meanClusterHeadUtility 	20.294409890293
scalar RSUExampleScenario.node[63].appl 	NumberofCH 	0.054054054054054
scalar RSUExampleScenario.node[63].appl 	NumberofON 	0.48648648648649
scalar RSUExampleScenario.node[63].appl 	NumberofFN 	0.45945945945946
scalar RSUExampleScenario.node[63].veinsmobility 	startTime 	151.9
scalar RSUExampleScenario.node[63].veinsmobility 	totalTime 	298.1
scalar RSUExampleScenario.node[63].veinsmobility 	stopTime 	450
scalar RSUExampleScenario.node[63].veinsmobility 	minSpeed 	0
scalar RSUExampleScenario.node[63].veinsmobility 	maxSpeed 	13.998855319824
scalar RSUExampleScenario.node[63].veinsmobility 	totalDistance 	984.05064093203
scalar RSUExampleScenario.node[63].veinsmobility 	totalCO2Emission 	449.40413012504
scalar RSUExampleScenario.node[64].appl 	meanClusterNodes 	9
scalar RSUExampleScenario.node[64].appl 	meanClusterHeadUtility 	36.418064149589
scalar RSUExampleScenario.node[64].appl 	NumberofCH 	0.027027027027027
scalar RSUExampleScenario.node[64].appl 	NumberofON 	0.27027027027027
scalar RSUExampleScenario.node[64].appl 	NumberofFN 	0.7027027027027
scalar RSUExampleScenario.node[64].veinsmobility 	startTime 	154.3
scalar RSUExampleScenario.node[64].veinsmobility 	totalTime 	295.7
scalar RSUExampleScenario.node[64].veinsmobility 	stopTime 	450
scalar RSUExampleScenario.node[64].veinsmobility 	minSpeed 	0
scalar RSUExampleScenario.node[64].veinsmobility 	maxSpeed 	13.99990954634
scalar RSUExampleScenario.node[64].veinsmobility 	totalDistance 	952.75301800573
scalar RSUExampleScenario.node[64].veinsmobility 	totalCO2Emission 	435.90517380672
scalar RSUExampleScenario.node[65].appl 	meanClusterNodes 	4.25
scalar RSUExampleScenario.node[65].appl 	meanClusterHeadUtility 	8.8670779585584
scalar RSUExampleScenario.node[65].appl 	NumberofCH 	0.10810810810811
scalar RSUExampleScenario.node[65].appl 	NumberofON 	0.64864864864865
scalar RSUExampleScenario.node[65].appl 	NumberofFN 	0.24324324324324
scalar RSUExampleScenario.node[65].veinsmobility 	startTime 	156.7
scalar RSUExampleScenario.node[65].veinsmobility 	totalTime 	293.3
scalar RSUExampleScenario.node[65].veinsmobility 	stopTime 	450
scalar RSUExampleScenario.node[65].veinsmobility 	minSpeed 	0
scalar RSUExampleScenario.node[65].veinsmobility 	maxSpeed 	13.999945597174
scalar RSUExampleScenario.node[65].veinsmobility 	totalDistance 	940.12339621222
scalar RSUExampleScenario.node[65].veinsmobility 	totalCO2Emission 	428.28347249823
scalar RSUExampleScenario.node[66].appl 	meanClusterNodes 	4.5
scalar RSUExampleScenario.node[66].appl 	meanClusterHeadUtility 	22.60988430822
scalar RSUExampleScenario.node[66].appl 	NumberofCH 	0.054054054054054
scalar RSUExampleScenario.node[66].appl 	NumberofON 	0.67567567567568
scalar RSUExampleScenario.node[66].appl 	NumberofFN 	0.27027027027027
scalar RSUExampleScenario.node[66].veinsmobility 	startTime 	159.1
scalar RSUExampleScenario.node[66].veinsmobility 	totalTime 	290.9
scalar RSUExampleScenario.node[66].veinsmobility 	stopTime 	450
scalar RSUExampleScenario.node[66].veinsmobility 	minSpeed 	0
scalar RSUExampleScenario.node[66].veinsmobility 	maxSpeed 	13.999884750445
scalar RSUExampleScenario.node[66].veinsmobility 	totalDistance 	927.83564039571
scalar RSUExampleScenario.node[66].veinsmobility 	totalCO2Emission 	423.58130039911
scalar RSUExampleScenario.node[67].appl 	meanClusterNodes 	2
scalar RSUExampleScenario.node[67].appl 	meanClusterHeadUtility 	8.8923312797278
scalar RSUExampleScenario.node[67].appl 	NumberofCH 	0.10810810810811
scalar RSUExampleScenario.node[67].appl 	NumberofON 	0.37837837837838
scalar RSUExampleScenario.node[67].appl 	NumberofFN 	0.51351351351351
scalar RSUExampleScenario.node[67].veinsmobility 	startTime 	161.5
scalar RSUExampleScenario.node[67].veinsmobility 	totalTime 	288.5
scalar RSUExampleScenario.node[67].veinsmobility 	stopTime 	450
scalar RSUExampleScenario.node[67].veinsmobility 	minSpeed 	0
scalar RSUExampleScenario.node[67].veinsmobility 	maxSpeed 	13.999766789756
scalar RSUExampleScenario.node[67].veinsmobility 	totalDistance 	912.19275387715
scalar RSUExampleScenario.node[67].veinsmobility 	totalCO2Emission 	420.17452783239
scalar RSUExampleScenario.node[68].appl 	meanClusterNodes 	9.75
scalar RSUExampleScenario.node[68].appl 	meanClusterHeadUtility 	8.8599877442463
scalar RSUExampleScenario.node[68].appl 	NumberofCH 	0.10810810810811
scalar RSUExampleScenario.node[68].appl 	NumberofON 	0.40540540540541
scalar RSUExampleScenario.node[68].appl 	NumberofFN 	0.48648648648649
scalar RSUExampleScenario.node[68].veinsmobility 	startTime 	163.9
scalar RSUExampleScenario.node[68].veinsmobility 	totalTime 	286.1
scalar RSUExampleScenario.node[68].veinsmobility 	stopTime 	450
scalar RSUExampleScenario.node[68].veinsmobility 	minSpeed 	0
scalar RSUExampleScenario.node[68].veinsmobility 	maxSpeed 	13.999642930746
scalar RSUExampleScenario.node[68].veinsmobility 	totalDistance 	892.30182153184
scalar RSUExampleScenario.node[68].veinsmobility 	totalCO2Emission 	418.62270890977
scalar RSUExampleScenario.node[69].appl 	meanClusterNodes 	0
scalar RSUExampleScenario.node[69].appl 	meanClusterHeadUtility 	0
scalar RSUExampleScenario.node[69].appl 	NumberofCH 	0
scalar RSUExampleScenario.node[69].appl 	NumberofON 	0.64864864864865
scalar RSUExampleScenario.node[69].appl 	NumberofFN 	0.35135135135135
scalar RSUExampleScenario.node[69].veinsmobility 	startTime 	166.3
scalar RSUExampleScenario.node[69].veinsmobility 	totalTime 	283.7
scalar RSUExampleScenario.node[69].veinsmobility 	stopTime 	450
scalar RSUExampleScenario.node[69].veinsmobility 	minSpeed 	0
scalar RSUExampleScenario.node[69].veinsmobility 	maxSpeed 	13.999894883682
scalar RSUExampleScenario.node[69].veinsmobility 	totalDistance 	859.97489970969
scalar RSUExampleScenario.node[69].veinsmobility 	totalCO2Emission 	412.06294596022
scalar RSUExampleScenario.node[7].appl 	meanClusterNodes 	4
scalar RSUExampleScenario.node[7].appl 	meanClusterHeadUtility 	16.94698608432
scalar RSUExampleScenario.node[7].appl 	NumberofCH 	0.054054054054054
scalar RSUExampleScenario.node[7].appl 	NumberofON 	0.27027027027027
scalar RSUExampleScenario.node[7].appl 	NumberofFN 	0.67567567567568
scalar RSUExampleScenario.node[7].veinsmobility 	startTime 	16.9
scalar RSUExampleScenario.node[7].veinsmobility 	totalTime 	433.1
scalar RSUExampleScenario.node[7].veinsmobility 	stopTime 	450
scalar RSUExampleScenario.node[7].veinsmobility 	minSpeed 	0
scalar RSUExampleScenario.node[7].veinsmobility 	maxSpeed 	13.999989778684
scalar RSUExampleScenario.node[7].veinsmobility 	totalDistance 	2885.9241428125
scalar RSUExampleScenario.node[7].veinsmobility 	totalCO2Emission 	774.51833920869
scalar RSUExampleScenario.node[70].appl 	meanClusterNodes 	0
scalar RSUExampleScenario.node[70].appl 	meanClusterHeadUtility 	0
scalar RSUExampleScenario.node[70].appl 	NumberofCH 	0.10810810810811
scalar RSUExampleScenario.node[70].appl 	NumberofON 	0
scalar RSUExampleScenario.node[70].appl 	NumberofFN 	0.89189189189189
scalar RSUExampleScenario.node[70].veinsmobility 	startTime 	168.8
scalar RSUExampleScenario.node[70].veinsmobility 	totalTime 	281.2
scalar RSUExampleScenario.node[70].veinsmobility 	stopTime 	450
scalar RSUExampleScenario.node[70].veinsmobility 	minSpeed 	0
scalar RSUExampleScenario.node[70].veinsmobility 	maxSpeed 	13.999447987073
scalar RSUExampleScenario.node[70].veinsmobility 	totalDistance 	824.58966654844
scalar RSUExampleScenario.node[70].veinsmobility 	totalCO2Emission 	406.7447466846
scalar RSUExampleScenario.node[71].appl 	meanClusterNodes 	3
scalar RSUExampleScenario.node[71].appl 	meanClusterHeadUtility 	17.696396600023
scalar RSUExampleScenario.node[71].appl 	NumberofCH 	0.054054054054054
scalar RSUExampleScenario.node[71].appl 	NumberofON 	0.2972972972973
scalar RSUExampleScenario.node[71].appl 	NumberofFN 	0.64864864864865
scalar RSUExampleScenario.node[71].veinsmobility 	startTime 	171.2
scalar RSUExampleScenario.node[71].veinsmobility 	totalTime 	278.8
scalar RSUExampleScenario.node[71].veinsmobility 	stopTime 	450
scalar RSUExampleScenario.node[71].veinsmobility 	minSpeed 	0
scalar RSUExampleScenario.node[71].veinsmobility 	maxSpeed 	13.999773699301
scalar RSUExampleScenario.node[71].veinsmobility 	totalDistance 	792.26514642572
scalar RSUExampleScenario.node[71].veinsmobility 	totalCO2Emission 	400.68763889316
scalar RSUExampleScenario.node[72].appl 	meanClusterNodes 	8
scalar RSUExampleScenario.node[72].appl 	meanClusterHeadUtility 	16.876446842889
scalar RSUExampleScenario.node[72].appl 	NumberofCH 	0.054054054054054
scalar RSUExampleScenario.node[72].appl 	NumberofON 	0.40540540540541
scalar RSUExampleScenario.node[72].appl 	NumberofFN 	0.54054054054054
scalar RSUExampleScenario.node[72].veinsmobility 	startTime 	173.6
scalar RSUExampleScenario.node[72].veinsmobility 	totalTime 	276.4
scalar RSUExampleScenario.node[72].veinsmobility 	stopTime 	450
scalar RSUExampleScenario.node[72].veinsmobility 	minSpeed 	0
scalar RSUExampleScenario.node[72].veinsmobility 	maxSpeed 	13.999815191077
scalar RSUExampleScenario.node[72].veinsmobility 	totalDistance 	758.16618989608
scalar RSUExampleScenario.node[72].veinsmobility 	totalCO2Emission 	396.66576507445
scalar RSUExampleScenario.node[73].appl 	meanClusterNodes 	3.3333333333333
scalar RSUExampleScenario.node[73].appl 	meanClusterHeadUtility 	11.085624144532
scalar RSUExampleScenario.node[73].appl 	NumberofCH 	0.081081081081081
scalar RSUExampleScenario.node[73].appl 	NumberofON 	0.56756756756757
scalar RSUExampleScenario.node[73].appl 	NumberofFN 	0.35135135135135
scalar RSUExampleScenario.node[73].veinsmobility 	startTime 	176
scalar RSUExampleScenario.node[73].veinsmobility 	totalTime 	274
scalar RSUExampleScenario.node[73].veinsmobility 	stopTime 	450
scalar RSUExampleScenario.node[73].veinsmobility 	minSpeed 	0
scalar RSUExampleScenario.node[73].veinsmobility 	maxSpeed 	13.999454000928
scalar RSUExampleScenario.node[73].veinsmobility 	totalDistance 	724.67214753406
scalar RSUExampleScenario.node[73].veinsmobility 	totalCO2Emission 	389.32794087152
scalar RSUExampleScenario.node[74].appl 	meanClusterNodes 	2.75
scalar RSUExampleScenario.node[74].appl 	meanClusterHeadUtility 	8.3371691442526
scalar RSUExampleScenario.node[74].appl 	NumberofCH 	0.10810810810811
scalar RSUExampleScenario.node[74].appl 	NumberofON 	0.54054054054054
scalar RSUExampleScenario.node[74].appl 	NumberofFN 	0.35135135135135
scalar RSUExampleScenario.node[74].veinsmobility 	startTime 	178.4
scalar RSUExampleScenario.node[74].veinsmobility 	totalTime 	271.6
scalar RSUExampleScenario.node[74].veinsmobility 	stopTime 	450
scalar RSUExampleScenario.node[74].veinsmobility 	minSpeed 	0
scalar RSUExampleScenario.node[74].veinsmobility 	maxSpeed 	13.999269701657
scalar RSUExampleScenario.node[74].veinsmobility 	totalDistance 	690.5716239469
scalar RSUExampleScenario.node[74].veinsmobility 	totalCO2Emission 	385.07088452721
scalar RSUExampleScenario.node[75].appl 	meanClusterNodes 	4.75
scalar RSUExampleScenario.node[75].appl 	meanClusterHeadUtility 	8.1926838662794
scalar RSUExampleScenario.node[75].appl 	NumberofCH 	0.10810810810811
scalar RSUExampleScenario.node[75].appl 	NumberofON 	0.43243243243243
scalar RSUExampleScenario.node[75].appl 	NumberofFN 	0.45945945945946
scalar RSUExampleScenario.node[75].veinsmobility 	startTime 	180.8
scalar RSUExampleScenario.node[75].veinsmobility 	totalTime 	269.2
scalar RSUExampleScenario.node[75].veinsmobility 	stopTime 	450
scalar RSUExampleScenario.node[75].veinsmobility 	minSpeed 	0
scalar RSUExampleScenario.node[75].veinsmobility 	maxSpeed 	13.999873422864
scalar RSUExampleScenario.node[75].veinsmobility 	totalDistance 	657.90814751043
scalar RSUExampleScenario.node[75].veinsmobility 	totalCO2Emission 	378.7945458906
scalar RSUExampleScenario.node[76].appl 	meanClusterNodes 	6
scalar RSUExampleScenario.node[76].appl 	meanClusterHeadUtility 	17.178458389812
scalar RSUExampleScenario.node[76].appl 	NumberofCH 	0.054054054054054
scalar RSUExampleScenario.node[76].appl 	NumberofON 	0.51351351351351
scalar RSUExampleScenario.node[76].appl 	NumberofFN 	0.43243243243243
scalar RSUExampleScenario.node[76].veinsmobility 	startTime 	183.2
scalar RSUExampleScenario.node[76].veinsmobility 	totalTime 	266.8
scalar RSUExampleScenario.node[76].veinsmobility 	stopTime 	450
scalar RSUExampleScenario.node[76].veinsmobility 	minSpeed 	0
scalar RSUExampleScenario.node[76].veinsmobility 	maxSpeed 	13.999426901669
scalar RSUExampleScenario.node[76].veinsmobility 	totalDistance 	624.90413384758
scalar RSUExampleScenario.node[76].veinsmobility 	totalCO2Emission 	374.25718945481
scalar RSUExampleScenario.node[77].appl 	meanClusterNodes 	6.75
scalar RSUExampleScenario.node[77].appl 	meanClusterHeadUtility 	8.9895130178767
scalar RSUExampleScenario.node[77].appl 	NumberofCH 	0.10810810810811
scalar RSUExampleScenario.node[77].appl 	NumberofON 	0.43243243243243
scalar RSUExampleScenario.node[77].appl 	NumberofFN 	0.45945945945946
scalar RSUExampleScenario.node[77].veinsmobility 	startTime 	185.6
scalar RSUExampleScenario.node[77].veinsmobility 	totalTime 	264.4
scalar RSUExampleScenario.node[77].veinsmobility 	stopTime 	450
scalar RSUExampleScenario.node[77].veinsmobility 	minSpeed 	0
scalar RSUExampleScenario.node[77].veinsmobility 	maxSpeed 	13.997831933598
scalar RSUExampleScenario.node[77].veinsmobility 	totalDistance 	591.5421723235
scalar RSUExampleScenario.node[77].veinsmobility 	totalCO2Emission 	369.50662580213
scalar RSUExampleScenario.node[78].appl 	meanClusterNodes 	6
scalar RSUExampleScenario.node[78].appl 	meanClusterHeadUtility 	17.211518105435
scalar RSUExampleScenario.node[78].appl 	NumberofCH 	0.054054054054054
scalar RSUExampleScenario.node[78].appl 	NumberofON 	0.54054054054054
scalar RSUExampleScenario.node[78].appl 	NumberofFN 	0.40540540540541
scalar RSUExampleScenario.node[78].veinsmobility 	startTime 	188
scalar RSUExampleScenario.node[78].veinsmobility 	totalTime 	262
scalar RSUExampleScenario.node[78].veinsmobility 	stopTime 	450
scalar RSUExampleScenario.node[78].veinsmobility 	minSpeed 	0
scalar RSUExampleScenario.node[78].veinsmobility 	maxSpeed 	13.998982068973
scalar RSUExampleScenario.node[78].veinsmobility 	totalDistance 	558.62887457021
scalar RSUExampleScenario.node[78].veinsmobility 	totalCO2Emission 	361.95141796297
scalar RSUExampleScenario.node[79].appl 	meanClusterNodes 	6.5
scalar RSUExampleScenario.node[79].appl 	meanClusterHeadUtility 	17.177846656813
scalar RSUExampleScenario.node[79].appl 	NumberofCH 	0.054054054054054
scalar RSUExampleScenario.node[79].appl 	NumberofON 	0.51351351351351
scalar RSUExampleScenario.node[79].appl 	NumberofFN 	0.43243243243243
scalar RSUExampleScenario.node[79].veinsmobility 	startTime 	190.4
scalar RSUExampleScenario.node[79].veinsmobility 	totalTime 	259.6
scalar RSUExampleScenario.node[79].veinsmobility 	stopTime 	450
scalar RSUExampleScenario.node[79].veinsmobility 	minSpeed 	0
scalar RSUExampleScenario.node[79].veinsmobility 	maxSpeed 	13.998277309635
scalar RSUExampleScenario.node[79].veinsmobility 	totalDistance 	525.8203425124
scalar RSUExampleScenario.node[79].veinsmobility 	totalCO2Emission 	356.29059396539
scalar RSUExampleScenario.node[8].appl 	meanClusterNodes 	4
scalar RSUExampleScenario.node[8].appl 	meanClusterHeadUtility 	17.576312096319
scalar RSUExampleScenario.node[8].appl 	NumberofCH 	0.054054054054054
scalar RSUExampleScenario.node[8].appl 	NumberofON 	0.35135135135135
scalar RSUExampleScenario.node[8].appl 	NumberofFN 	0.59459459459459
scalar RSUExampleScenario.node[8].veinsmobility 	startTime 	19.3
scalar RSUExampleScenario.node[8].veinsmobility 	totalTime 	430.7
scalar RSUExampleScenario.node[8].veinsmobility 	stopTime 	450
scalar RSUExampleScenario.node[8].veinsmobility 	minSpeed 	0
scalar RSUExampleScenario.node[8].veinsmobility 	maxSpeed 	13.999909192326
scalar RSUExampleScenario.node[8].veinsmobility 	totalDistance 	2864.7409974072
scalar RSUExampleScenario.node[8].veinsmobility 	totalCO2Emission 	776.65580994413
scalar RSUExampleScenario.node[80].appl 	meanClusterNodes 	1.5
scalar RSUExampleScenario.node[80].appl 	meanClusterHeadUtility 	17.384208827357
scalar RSUExampleScenario.node[80].appl 	NumberofCH 	0.054054054054054
scalar RSUExampleScenario.node[80].appl 	NumberofON 	0.45945945945946
scalar RSUExampleScenario.node[80].appl 	NumberofFN 	0.48648648648649
scalar RSUExampleScenario.node[80].veinsmobility 	startTime 	192.9
scalar RSUExampleScenario.node[80].veinsmobility 	totalTime 	257.1
scalar RSUExampleScenario.node[80].veinsmobility 	stopTime 	450
scalar RSUExampleScenario.node[80].veinsmobility 	minSpeed 	0
scalar RSUExampleScenario.node[80].veinsmobility 	maxSpeed 	13.998818836703
scalar RSUExampleScenario.node[80].veinsmobility 	totalDistance 	491.3563180315
scalar RSUExampleScenario.node[80].veinsmobility 	totalCO2Emission 	350.5681956168
scalar RSUExampleScenario.node[81].appl 	meanClusterNodes 	7.6666666666667
scalar RSUExampleScenario.node[81].appl 	meanClusterHeadUtility 	11.184590367976
scalar RSUExampleScenario.node[81].appl 	NumberofCH 	0.081081081081081
scalar RSUExampleScenario.node[81].appl 	NumberofON 	0.27027027027027
scalar RSUExampleScenario.node[81].appl 	NumberofFN 	0.64864864864865
scalar RSUExampleScenario.node[81].veinsmobility 	startTime 	195.3
scalar RSUExampleScenario.node[81].veinsmobility 	totalTime 	254.7
scalar RSUExampleScenario.node[81].veinsmobility 	stopTime 	450
scalar RSUExampleScenario.node[81].veinsmobility 	minSpeed 	0
scalar RSUExampleScenario.node[81].veinsmobility 	maxSpeed 	13.998173004226
scalar RSUExampleScenario.node[81].veinsmobility 	totalDistance 	458.0206595575
scalar RSUExampleScenario.node[81].veinsmobility 	totalCO2Emission 	346.24408505393
scalar RSUExampleScenario.node[82].appl 	meanClusterNodes 	1
scalar RSUExampleScenario.node[82].appl 	meanClusterHeadUtility 	33.939093442512
scalar RSUExampleScenario.node[82].appl 	NumberofCH 	0.027027027027027
scalar RSUExampleScenario.node[82].appl 	NumberofON 	0.62162162162162
scalar RSUExampleScenario.node[82].appl 	NumberofFN 	0.35135135135135
scalar RSUExampleScenario.node[82].veinsmobility 	startTime 	197.7
scalar RSUExampleScenario.node[82].veinsmobility 	totalTime 	252.3
scalar RSUExampleScenario.node[82].veinsmobility 	stopTime 	450
scalar RSUExampleScenario.node[82].veinsmobility 	minSpeed 	0
scalar RSUExampleScenario.node[82].veinsmobility 	maxSpeed 	13.998934588707
scalar RSUExampleScenario.node[82].veinsmobility 	totalDistance 	424.39072764199
scalar RSUExampleScenario.node[82].veinsmobility 	totalCO2Emission 	339.82438304424
scalar RSUExampleScenario.node[83].appl 	meanClusterNodes 	4.5
scalar RSUExampleScenario.node[83].appl 	meanClusterHeadUtility 	18.669260489859
scalar RSUExampleScenario.node[83].appl 	NumberofCH 	0.054054054054054
scalar RSUExampleScenario.node[83].appl 	NumberofON 	0.35135135135135
scalar RSUExampleScenario.node[83].appl 	NumberofFN 	0.59459459459459
scalar RSUExampleScenario.node[83].veinsmobility 	startTime 	200.1
scalar RSUExampleScenario.node[83].veinsmobility 	totalTime 	249.9
scalar RSUExampleScenario.node[83].veinsmobility 	stopTime 	450
scalar RSUExampleScenario.node[83].veinsmobility 	minSpeed 	0
scalar RSUExampleScenario.node[83].veinsmobility 	maxSpeed 	13.99444455713
scalar RSUExampleScenario.node[83].veinsmobility 	totalDistance 	388.61293835664
scalar RSUExampleScenario.node[83].veinsmobility 	totalCO2Emission 	334.05654115804
scalar RSUExampleScenario.node[84].appl 	meanClusterNodes 	4.25
scalar RSUExampleScenario.node[84].appl 	meanClusterHeadUtility 	8.6128063144917
scalar RSUExampleScenario.node[84].appl 	NumberofCH 	0.10810810810811
scalar RSUExampleScenario.node[84].appl 	NumberofON 	0.43243243243243
scalar RSUExampleScenario.node[84].appl 	NumberofFN 	0.45945945945946
scalar RSUExampleScenario.node[84].veinsmobility 	startTime 	202.5
scalar RSUExampleScenario.node[84].veinsmobility 	totalTime 	247.5
scalar RSUExampleScenario.node[84].veinsmobility 	stopTime 	450
scalar RSUExampleScenario.node[84].veinsmobility 	minSpeed 	0
scalar RSUExampleScenario.node[84].veinsmobility 	maxSpeed 	13.999865109671
scalar RSUExampleScenario.node[84].veinsmobility 	totalDistance 	355.73987547826
scalar RSUExampleScenario.node[84].veinsmobility 	totalCO2Emission 	326.83569270004
scalar RSUExampleScenario.node[85].appl 	meanClusterNodes 	2
scalar RSUExampleScenario.node[85].appl 	meanClusterHeadUtility 	31.915520727308
scalar RSUExampleScenario.node[85].appl 	NumberofCH 	0.027027027027027
scalar RSUExampleScenario.node[85].appl 	NumberofON 	0.59459459459459
scalar RSUExampleScenario.node[85].appl 	NumberofFN 	0.37837837837838
scalar RSUExampleScenario.node[85].veinsmobility 	startTime 	204.9
scalar RSUExampleScenario.node[85].veinsmobility 	totalTime 	245.1
scalar RSUExampleScenario.node[85].veinsmobility 	stopTime 	450
scalar RSUExampleScenario.node[85].veinsmobility 	minSpeed 	0
scalar RSUExampleScenario.node[85].veinsmobility 	maxSpeed 	13.993598242453
scalar RSUExampleScenario.node[85].veinsmobility 	totalDistance 	323.18843010134
scalar RSUExampleScenario.node[85].veinsmobility 	totalCO2Emission 	322.71066503405
scalar RSUExampleScenario.node[86].appl 	meanClusterNodes 	0
scalar RSUExampleScenario.node[86].appl 	meanClusterHeadUtility 	0
scalar RSUExampleScenario.node[86].appl 	NumberofCH 	0.10810810810811
scalar RSUExampleScenario.node[86].appl 	NumberofON 	0.081081081081081
scalar RSUExampleScenario.node[86].appl 	NumberofFN 	0.81081081081081
scalar RSUExampleScenario.node[86].veinsmobility 	startTime 	207.3
scalar RSUExampleScenario.node[86].veinsmobility 	totalTime 	242.7
scalar RSUExampleScenario.node[86].veinsmobility 	stopTime 	450
scalar RSUExampleScenario.node[86].veinsmobility 	minSpeed 	0
scalar RSUExampleScenario.node[86].veinsmobility 	maxSpeed 	13.869373616206
scalar RSUExampleScenario.node[86].veinsmobility 	totalDistance 	289.14139715457
scalar RSUExampleScenario.node[86].veinsmobility 	totalCO2Emission 	317.29695169351
scalar RSUExampleScenario.node[87].appl 	meanClusterNodes 	3
scalar RSUExampleScenario.node[87].appl 	meanClusterHeadUtility 	12.357491535247
scalar RSUExampleScenario.node[87].appl 	NumberofCH 	0.081081081081081
scalar RSUExampleScenario.node[87].appl 	NumberofON 	0.54054054054054
scalar RSUExampleScenario.node[87].appl 	NumberofFN 	0.37837837837838
scalar RSUExampleScenario.node[87].veinsmobility 	startTime 	209.7
scalar RSUExampleScenario.node[87].veinsmobility 	totalTime 	240.3
scalar RSUExampleScenario.node[87].veinsmobility 	stopTime 	450
scalar RSUExampleScenario.node[87].veinsmobility 	minSpeed 	0
scalar RSUExampleScenario.node[87].veinsmobility 	maxSpeed 	13.808709551864
scalar RSUExampleScenario.node[87].veinsmobility 	totalDistance 	248.85825977947
scalar RSUExampleScenario.node[87].veinsmobility 	totalCO2Emission 	299.38588781006
scalar RSUExampleScenario.node[88].appl 	meanClusterNodes 	8
scalar RSUExampleScenario.node[88].appl 	meanClusterHeadUtility 	18.198321816829
scalar RSUExampleScenario.node[88].appl 	NumberofCH 	0.054054054054054
scalar RSUExampleScenario.node[88].appl 	NumberofON 	0.24324324324324
scalar RSUExampleScenario.node[88].appl 	NumberofFN 	0.7027027027027
scalar RSUExampleScenario.node[88].veinsmobility 	startTime 	212.1
scalar RSUExampleScenario.node[88].veinsmobility 	totalTime 	237.9
scalar RSUExampleScenario.node[88].veinsmobility 	stopTime 	450
scalar RSUExampleScenario.node[88].veinsmobility 	minSpeed 	0
scalar RSUExampleScenario.node[88].veinsmobility 	maxSpeed 	13.78349333838
scalar RSUExampleScenario.node[88].veinsmobility 	totalDistance 	226.00875282879
scalar RSUExampleScenario.node[88].veinsmobility 	totalCO2Emission 	287.21092653741
scalar RSUExampleScenario.node[89].appl 	meanClusterNodes 	4
scalar RSUExampleScenario.node[89].appl 	meanClusterHeadUtility 	18.180124140901
scalar RSUExampleScenario.node[89].appl 	NumberofCH 	0.054054054054054
scalar RSUExampleScenario.node[89].appl 	NumberofON 	0.32432432432432
scalar RSUExampleScenario.node[89].appl 	NumberofFN 	0.62162162162162
scalar RSUExampleScenario.node[89].veinsmobility 	startTime 	214.5
scalar RSUExampleScenario.node[89].veinsmobility 	totalTime 	235.5
scalar RSUExampleScenario.node[89].veinsmobility 	stopTime 	450
scalar RSUExampleScenario.node[89].veinsmobility 	minSpeed 	0
scalar RSUExampleScenario.node[89].veinsmobility 	maxSpeed 	13.834780017506
scalar RSUExampleScenario.node[89].veinsmobility 	totalDistance 	215.22100653354
scalar RSUExampleScenario.node[89].veinsmobility 	totalCO2Emission 	282.84404222904
scalar RSUExampleScenario.node[9].appl 	meanClusterNodes 	7
scalar RSUExampleScenario.node[9].appl 	meanClusterHeadUtility 	18.935001173649
scalar RSUExampleScenario.node[9].appl 	NumberofCH 	0.054054054054054
scalar RSUExampleScenario.node[9].appl 	NumberofON 	0.2972972972973
scalar RSUExampleScenario.node[9].appl 	NumberofFN 	0.64864864864865
scalar RSUExampleScenario.node[9].veinsmobility 	startTime 	21.7
scalar RSUExampleScenario.node[9].veinsmobility 	totalTime 	428.3
scalar RSUExampleScenario.node[9].veinsmobility 	stopTime 	450
scalar RSUExampleScenario.node[9].veinsmobility 	minSpeed 	0
scalar RSUExampleScenario.node[9].veinsmobility 	maxSpeed 	13.999827210039
scalar RSUExampleScenario.node[9].veinsmobility 	totalDistance 	2825.1081893469
scalar RSUExampleScenario.node[9].veinsmobility 	totalCO2Emission 	766.12544587702
scalar RSUExampleScenario.node[90].appl 	meanClusterNodes 	4.5
scalar RSUExampleScenario.node[90].appl 	meanClusterHeadUtility 	9.7607766181355
scalar RSUExampleScenario.node[90].appl 	NumberofCH 	0.10810810810811
scalar RSUExampleScenario.node[90].appl 	NumberofON 	0.56756756756757
scalar RSUExampleScenario.node[90].appl 	NumberofFN 	0.32432432432432
scalar RSUExampleScenario.node[90].veinsmobility 	startTime 	217
scalar RSUExampleScenario.node[90].veinsmobility 	totalTime 	233
scalar RSUExampleScenario.node[90].veinsmobility 	stopTime 	450
scalar RSUExampleScenario.node[90].veinsmobility 	minSpeed 	0
scalar RSUExampleScenario.node[90].veinsmobility 	maxSpeed 	13.87514278702
scalar RSUExampleScenario.node[90].veinsmobility 	totalDistance 	201.99513370517
scalar RSUExampleScenario.node[90].veinsmobility 	totalCO2Emission 	280.1715871741
scalar RSUExampleScenario.node[91].appl 	meanClusterNodes 	3.25
scalar RSUExampleScenario.node[91].appl 	meanClusterHeadUtility 	9.4998779638115
scalar RSUExampleScenario.node[91].appl 	NumberofCH 	0.10810810810811
scalar RSUExampleScenario.node[91].appl 	NumberofON 	0.54054054054054
scalar RSUExampleScenario.node[91].appl 	NumberofFN 	0.35135135135135
scalar RSUExampleScenario.node[91].veinsmobility 	startTime 	219.4
scalar RSUExampleScenario.node[91].veinsmobility 	totalTime 	230.6
scalar RSUExampleScenario.node[91].veinsmobility 	stopTime 	450
scalar RSUExampleScenario.node[91].veinsmobility 	minSpeed 	0
scalar RSUExampleScenario.node[91].veinsmobility 	maxSpeed 	13.860904272269
scalar RSUExampleScenario.node[91].veinsmobility 	totalDistance 	185.38215029068
scalar RSUExampleScenario.node[91].veinsmobility 	totalCO2Emission 	277.94635494876
scalar RSUExampleScenario.node[92].appl 	meanClusterNodes 	5
scalar RSUExampleScenario.node[92].appl 	meanClusterHeadUtility 	20.508646163716
scalar RSUExampleScenario.node[92].appl 	NumberofCH 	0.054054054054054
scalar RSUExampleScenario.node[92].appl 	NumberofON 	0.48648648648649
scalar RSUExampleScenario.node[92].appl 	NumberofFN 	0.45945945945946
scalar RSUExampleScenario.node[92].veinsmobility 	startTime 	221.8
scalar RSUExampleScenario.node[92].veinsmobility 	totalTime 	228.2
scalar RSUExampleScenario.node[92].veinsmobility 	stopTime 	450
scalar RSUExampleScenario.node[92].veinsmobility 	minSpeed 	0
scalar RSUExampleScenario.node[92].veinsmobility 	maxSpeed 	13.852252233122
scalar RSUExampleScenario.node[92].veinsmobility 	totalDistance 	150.29043638036
scalar RSUExampleScenario.node[92].veinsmobility 	totalCO2Emission 	264.3736929228
scalar RSUExampleScenario.node[93].appl 	meanClusterNodes 	1
scalar RSUExampleScenario.node[93].appl 	meanClusterHeadUtility 	19.039419400765
scalar RSUExampleScenario.node[93].appl 	NumberofCH 	0.054054054054054
scalar RSUExampleScenario.node[93].appl 	NumberofON 	0.48648648648649
scalar RSUExampleScenario.node[93].appl 	NumberofFN 	0.45945945945946
scalar RSUExampleScenario.node[93].veinsmobility 	startTime 	224.2
scalar RSUExampleScenario.node[93].veinsmobility 	totalTime 	225.8
scalar RSUExampleScenario.node[93].veinsmobility 	stopTime 	450
scalar RSUExampleScenario.node[93].veinsmobility 	minSpeed 	0
scalar RSUExampleScenario.node[93].veinsmobility 	maxSpeed 	13.846616406175
scalar RSUExampleScenario.node[93].veinsmobility 	totalDistance 	123.72561542075
scalar RSUExampleScenario.node[93].veinsmobility 	totalCO2Emission 	251.36640814293
scalar RSUExampleScenario.node[94].appl 	meanClusterNodes 	3
scalar RSUExampleScenario.node[94].appl 	meanClusterHeadUtility 	16.604572691499
scalar RSUExampleScenario.node[94].appl 	NumberofCH 	0.054054054054054
scalar RSUExampleScenario.node[94].appl 	NumberofON 	0.37837837837838
scalar RSUExampleScenario.node[94].appl 	NumberofFN 	0.56756756756757
scalar RSUExampleScenario.node[94].veinsmobility 	startTime 	226.6
scalar RSUExampleScenario.node[94].veinsmobility 	totalTime 	223.4
scalar RSUExampleScenario.node[94].veinsmobility 	stopTime 	450
scalar RSUExampleScenario.node[94].veinsmobility 	minSpeed 	0
scalar RSUExampleScenario.node[94].veinsmobility 	maxSpeed 	13.812661967112
scalar RSUExampleScenario.node[94].veinsmobility 	totalDistance 	112.32666487377
scalar RSUExampleScenario.node[94].veinsmobility 	totalCO2Emission 	245.85858016171
scalar RSUExampleScenario.node[95].appl 	meanClusterNodes 	0
scalar RSUExampleScenario.node[95].appl 	meanClusterHeadUtility 	0
scalar RSUExampleScenario.node[95].appl 	NumberofCH 	0.054054054054054
scalar RSUExampleScenario.node[95].appl 	NumberofON 	0.37837837837838
scalar RSUExampleScenario.node[95].appl 	NumberofFN 	0.56756756756757
scalar RSUExampleScenario.node[95].veinsmobility 	startTime 	229
scalar RSUExampleScenario.node[95].veinsmobility 	totalTime 	221
scalar RSUExampleScenario.node[95].veinsmobility 	stopTime 	450
scalar RSUExampleScenario.node[95].veinsmobility 	minSpeed 	0
scalar RSUExampleScenario.node[95].veinsmobility 	maxSpeed 	13.785236275392
scalar RSUExampleScenario.node[95].veinsmobility 	totalDistance 	99.327187637194
scalar RSUExampleScenario.node[95].veinsmobility 	totalCO2Emission 	242.47203654469
scalar RSUExampleScenario.node[96].appl 	meanClusterNodes 	7
scalar RSUExampleScenario.node[96].appl 	meanClusterHeadUtility 	9.5855426696574
scalar RSUExampleScenario.node[96].appl 	NumberofCH 	0.10810810810811
scalar RSUExampleScenario.node[96].appl 	NumberofON 	0.2972972972973
scalar RSUExampleScenario.node[96].appl 	NumberofFN 	0.59459459459459
scalar RSUExampleScenario.node[96].veinsmobility 	startTime 	231.4
scalar RSUExampleScenario.node[96].veinsmobility 	totalTime 	218.6
scalar RSUExampleScenario.node[96].veinsmobility 	stopTime 	450
scalar RSUExampleScenario.node[96].veinsmobility 	minSpeed 	0
scalar RSUExampleScenario.node[96].veinsmobility 	maxSpeed 	13.77630157731
scalar RSUExampleScenario.node[96].veinsmobility 	totalDistance 	83.198931004165
scalar RSUExampleScenario.node[96].veinsmobility 	totalCO2Emission 	239.56483026471
scalar RSUExampleScenario.node[97].appl 	meanClusterNodes 	4
scalar RSUExampleScenario.node[97].appl 	meanClusterHeadUtility 	8.1517658389468
scalar RSUExampleScenario.node[97].appl 	NumberofCH 	0.10810810810811
scalar RSUExampleScenario.node[97].appl 	NumberofON 	0.48648648648649
scalar RSUExampleScenario.node[97].appl 	NumberofFN 	0.40540540540541
scalar RSUExampleScenario.node[97].veinsmobility 	startTime 	233.8
scalar RSUExampleScenario.node[97].veinsmobility 	totalTime 	216.2
scalar RSUExampleScenario.node[97].veinsmobility 	stopTime 	450
scalar RSUExampleScenario.node[97].veinsmobility 	minSpeed 	0
scalar RSUExampleScenario.node[97].veinsmobility 	maxSpeed 	12.404839357406
scalar RSUExampleScenario.node[97].veinsmobility 	totalDistance 	55.926742308967
scalar RSUExampleScenario.node[97].veinsmobility 	totalCO2Emission 	232.12418595793
scalar RSUExampleScenario.node[98].appl 	meanClusterNodes 	7.5
scalar RSUExampleScenario.node[98].appl 	meanClusterHeadUtility 	17.500490163936
scalar RSUExampleScenario.node[98].appl 	NumberofCH 	0.054054054054054
scalar RSUExampleScenario.node[98].appl 	NumberofON 	0.40540540540541
scalar RSUExampleScenario.node[98].appl 	NumberofFN 	0.54054054054054
scalar RSUExampleScenario.node[98].veinsmobility 	startTime 	236.2
scalar RSUExampleScenario.node[98].veinsmobility 	totalTime 	213.8
scalar RSUExampleScenario.node[98].veinsmobility 	stopTime 	450
scalar RSUExampleScenario.node[98].veinsmobility 	minSpeed 	0
scalar RSUExampleScenario.node[98].veinsmobility 	maxSpeed 	7.9439742089907
scalar RSUExampleScenario.node[98].veinsmobility 	totalDistance 	22.871913342095
scalar RSUExampleScenario.node[98].veinsmobility 	totalCO2Emission 	217.06651021327
scalar RSUExampleScenario.node[99].appl 	meanClusterNodes 	6
scalar RSUExampleScenario.node[99].appl 	meanClusterHeadUtility 	9.1673493502891
scalar RSUExampleScenario.node[99].appl 	NumberofCH 	0.10810810810811
scalar RSUExampleScenario.node[99].appl 	NumberofON 	0.24324324324324
scalar RSUExampleScenario.node[99].appl 	NumberofFN 	0.64864864864865
scalar RSUExampleScenario.node[99].veinsmobility 	startTime 	238.6
scalar RSUExampleScenario.node[99].veinsmobility 	totalTime 	211.4
scalar RSUExampleScenario.node[99].veinsmobility 	stopTime 	450
scalar RSUExampleScenario.node[99].veinsmobility 	minSpeed 	0
scalar RSUExampleScenario.node[99].veinsmobility 	maxSpeed 	2.9615879822515
scalar RSUExampleScenario.node[99].veinsmobility 	totalDistance 	3.1764962787041
scalar RSUExampleScenario.node[99].veinsmobility 	totalCO2Emission 	207.00569764132
