version 2
run statistic-362-20150313-22:48:31-25196
attr c 27
attr configname statistic
attr datetime 20150313-22:48:31
attr experiment statistic
attr inifile omnetpp.ini
attr iterationvars "$p=1/25, $c=27"
attr iterationvars2 "$p=1/25, $c=27, $repetition=62"
attr measurement "$p=1/25, $c=27"
attr network RSUExampleScenario
attr p 1/25
attr processid 25196
attr repetition 62
attr replication #62
attr resultdir results
attr runnumber 362
attr seedset 362

scalar . 	c 	27
scalar RSUExampleScenario.rsu[0].appl 	NumberofCH 	1
scalar RSUExampleScenario.rsu[0].appl 	NumberofON 	21
scalar RSUExampleScenario.rsu[0].appl 	NumberofFN 	78
scalar RSUExampleScenario.rsu[0].appl 	meanClusterNodes 	1
scalar RSUExampleScenario.rsu[0].appl 	varClusterNodes 	1
scalar RSUExampleScenario.rsu[0].appl 	sumCHutility 	35.450602796528
scalar RSUExampleScenario.rsu[0].appl 	meanCHutility 	1
scalar RSUExampleScenario.rsu[0].appl 	varCHutility 	1
scalar RSUExampleScenario.rsu[0].appl 	sumDiffCHutility 	0
scalar RSUExampleScenario.rsu[0].appl 	meanDiffCHutility 	1
scalar RSUExampleScenario.rsu[0].appl 	varDiffCHutility 	1
scalar RSUExampleScenario.rsu[0].appl 	expectedCHutility 	35.450602796528
scalar RSUExampleScenario.rsu[0].appl 	meanExpectedCHutility 	1
scalar RSUExampleScenario.rsu[0].appl 	varExpectedCHutility 	1
