version 2
run statistic1-905-20150314-07:20:57-31636
attr c 28
attr configname statistic1
attr datetime 20150314-07:20:57
attr experiment statistic1
attr inifile omnetpp.ini
attr iterationvars "$p=1/20, $c=28"
attr iterationvars2 "$p=1/20, $c=28, $repetition=5"
attr measurement "$p=1/20, $c=28"
attr network RSUExampleScenario
attr p 1/20
attr processid 31636
attr repetition 5
attr replication #5
attr resultdir results
attr runnumber 905
attr seedset 905

scalar . 	c 	28
scalar RSUExampleScenario.rsu[0].appl 	NumberofCH 	12
scalar RSUExampleScenario.rsu[0].appl 	NumberofON 	88
scalar RSUExampleScenario.rsu[0].appl 	NumberofFN 	0
scalar RSUExampleScenario.rsu[0].appl 	meanClusterNodes 	12
scalar RSUExampleScenario.rsu[0].appl 	varClusterNodes 	3.4641016151378
scalar RSUExampleScenario.rsu[0].appl 	sumCHutility 	415.56307482147
scalar RSUExampleScenario.rsu[0].appl 	meanCHutility 	12
scalar RSUExampleScenario.rsu[0].appl 	varCHutility 	3.4641016151378
scalar RSUExampleScenario.rsu[0].appl 	sumDiffCHutility 	-7.9882734928859
scalar RSUExampleScenario.rsu[0].appl 	meanDiffCHutility 	12
scalar RSUExampleScenario.rsu[0].appl 	varDiffCHutility 	3.4641016151378
scalar RSUExampleScenario.rsu[0].appl 	expectedCHutility 	407.57480132859
scalar RSUExampleScenario.rsu[0].appl 	meanExpectedCHutility 	12
scalar RSUExampleScenario.rsu[0].appl 	varExpectedCHutility 	3.4641016151378
