version 2
run statistic4-451-20150324-14:20:27-9948
attr c 11
attr configname statistic4
attr datetime 20150324-14:20:27
attr experiment statistic4
attr inifile omnetpp.ini
attr iterationvars "$p=1/8, $c=11"
attr iterationvars2 "$p=1/8, $c=11, $repetition=51"
attr measurement "$p=1/8, $c=11"
attr network RSUExampleScenario
attr p 1/8
attr processid 9948
attr repetition 51
attr replication #51
attr resultdir results
attr runnumber 451
attr seedset 451

scalar . 	c 	11
scalar RSUExampleScenario.rsu[0].appl 	NumberofCH 	13
scalar RSUExampleScenario.rsu[0].appl 	NumberofON 	76
scalar RSUExampleScenario.rsu[0].appl 	NumberofFN 	11
scalar RSUExampleScenario.rsu[0].appl 	meanClusterNodes 	5.8461538461538
scalar RSUExampleScenario.rsu[0].appl 	varClusterNodes 	3.3477007918445
scalar RSUExampleScenario.rsu[0].appl 	sumCHutility 	502.15746789277
scalar RSUExampleScenario.rsu[0].appl 	meanCHutility 	38.627497530213
scalar RSUExampleScenario.rsu[0].appl 	varCHutility 	2.4651317409601
scalar RSUExampleScenario.rsu[0].appl 	sumDiffCHutility 	-59.247388175287
scalar RSUExampleScenario.rsu[0].appl 	meanDiffCHutility 	-4.557491398099
scalar RSUExampleScenario.rsu[0].appl 	varDiffCHutility 	2.1549438699269
scalar RSUExampleScenario.rsu[0].appl 	expectedCHutility 	442.91007971749
scalar RSUExampleScenario.rsu[0].appl 	meanExpectedCHutility 	34.070006132114
scalar RSUExampleScenario.rsu[0].appl 	varExpectedCHutility 	0.67017029662678
scalar RSUExampleScenario.node[0].veinsmobility 	startTime 	0.1
scalar RSUExampleScenario.node[0].veinsmobility 	totalTime 	349.9
scalar RSUExampleScenario.node[0].veinsmobility 	stopTime 	350
scalar RSUExampleScenario.node[0].veinsmobility 	minSpeed 	0
scalar RSUExampleScenario.node[0].veinsmobility 	maxSpeed 	13.999881940335
scalar RSUExampleScenario.node[0].veinsmobility 	totalDistance 	3132.021100494
scalar RSUExampleScenario.node[0].veinsmobility 	totalCO2Emission 	744.35273652147
scalar RSUExampleScenario.node[1].veinsmobility 	startTime 	2.5
scalar RSUExampleScenario.node[1].veinsmobility 	totalTime 	347.5
scalar RSUExampleScenario.node[1].veinsmobility 	stopTime 	350
scalar RSUExampleScenario.node[1].veinsmobility 	minSpeed 	0
scalar RSUExampleScenario.node[1].veinsmobility 	maxSpeed 	13.99997682435
scalar RSUExampleScenario.node[1].veinsmobility 	totalDistance 	3080.3578649966
scalar RSUExampleScenario.node[1].veinsmobility 	totalCO2Emission 	731.80535401629
scalar RSUExampleScenario.node[10].veinsmobility 	startTime 	24.2
scalar RSUExampleScenario.node[10].veinsmobility 	totalTime 	325.8
scalar RSUExampleScenario.node[10].veinsmobility 	stopTime 	350
scalar RSUExampleScenario.node[10].veinsmobility 	minSpeed 	0
scalar RSUExampleScenario.node[10].veinsmobility 	maxSpeed 	13.999998498647
scalar RSUExampleScenario.node[10].veinsmobility 	totalDistance 	2787.4486915415
scalar RSUExampleScenario.node[10].veinsmobility 	totalCO2Emission 	659.94498156058
scalar RSUExampleScenario.node[11].veinsmobility 	startTime 	26.6
scalar RSUExampleScenario.node[11].veinsmobility 	totalTime 	323.4
scalar RSUExampleScenario.node[11].veinsmobility 	stopTime 	350
scalar RSUExampleScenario.node[11].veinsmobility 	minSpeed 	0
scalar RSUExampleScenario.node[11].veinsmobility 	maxSpeed 	13.99996234684
scalar RSUExampleScenario.node[11].veinsmobility 	totalDistance 	2757.2135041783
scalar RSUExampleScenario.node[11].veinsmobility 	totalCO2Emission 	658.25197562811
scalar RSUExampleScenario.node[12].veinsmobility 	startTime 	29
scalar RSUExampleScenario.node[12].veinsmobility 	totalTime 	321
scalar RSUExampleScenario.node[12].veinsmobility 	stopTime 	350
scalar RSUExampleScenario.node[12].veinsmobility 	minSpeed 	0
scalar RSUExampleScenario.node[12].veinsmobility 	maxSpeed 	13.99999502803
scalar RSUExampleScenario.node[12].veinsmobility 	totalDistance 	2717.9635272151
scalar RSUExampleScenario.node[12].veinsmobility 	totalCO2Emission 	649.34335549904
scalar RSUExampleScenario.node[13].veinsmobility 	startTime 	31.4
scalar RSUExampleScenario.node[13].veinsmobility 	totalTime 	318.6
scalar RSUExampleScenario.node[13].veinsmobility 	stopTime 	350
scalar RSUExampleScenario.node[13].veinsmobility 	minSpeed 	0
scalar RSUExampleScenario.node[13].veinsmobility 	maxSpeed 	13.999973336933
scalar RSUExampleScenario.node[13].veinsmobility 	totalDistance 	2684.0109399338
scalar RSUExampleScenario.node[13].veinsmobility 	totalCO2Emission 	644.68933147031
scalar RSUExampleScenario.node[14].veinsmobility 	startTime 	33.8
scalar RSUExampleScenario.node[14].veinsmobility 	totalTime 	316.2
scalar RSUExampleScenario.node[14].veinsmobility 	stopTime 	350
scalar RSUExampleScenario.node[14].veinsmobility 	minSpeed 	0
scalar RSUExampleScenario.node[14].veinsmobility 	maxSpeed 	13.99993572636
scalar RSUExampleScenario.node[14].veinsmobility 	totalDistance 	2648.6605366452
scalar RSUExampleScenario.node[14].veinsmobility 	totalCO2Emission 	640.71835842771
scalar RSUExampleScenario.node[15].veinsmobility 	startTime 	36.2
scalar RSUExampleScenario.node[15].veinsmobility 	totalTime 	313.8
scalar RSUExampleScenario.node[15].veinsmobility 	stopTime 	350
scalar RSUExampleScenario.node[15].veinsmobility 	minSpeed 	0
scalar RSUExampleScenario.node[15].veinsmobility 	maxSpeed 	13.999911728268
scalar RSUExampleScenario.node[15].veinsmobility 	totalDistance 	2618.233294348
scalar RSUExampleScenario.node[15].veinsmobility 	totalCO2Emission 	632.17413856626
scalar RSUExampleScenario.node[16].veinsmobility 	startTime 	38.6
scalar RSUExampleScenario.node[16].veinsmobility 	totalTime 	311.4
scalar RSUExampleScenario.node[16].veinsmobility 	stopTime 	350
scalar RSUExampleScenario.node[16].veinsmobility 	minSpeed 	0
scalar RSUExampleScenario.node[16].veinsmobility 	maxSpeed 	13.999981165687
scalar RSUExampleScenario.node[16].veinsmobility 	totalDistance 	2579.7413895579
scalar RSUExampleScenario.node[16].veinsmobility 	totalCO2Emission 	628.69674531183
scalar RSUExampleScenario.node[17].veinsmobility 	startTime 	41
scalar RSUExampleScenario.node[17].veinsmobility 	totalTime 	309
scalar RSUExampleScenario.node[17].veinsmobility 	stopTime 	350
scalar RSUExampleScenario.node[17].veinsmobility 	minSpeed 	0
scalar RSUExampleScenario.node[17].veinsmobility 	maxSpeed 	13.999889441528
scalar RSUExampleScenario.node[17].veinsmobility 	totalDistance 	2543.7928737732
scalar RSUExampleScenario.node[17].veinsmobility 	totalCO2Emission 	621.10167369871
scalar RSUExampleScenario.node[18].veinsmobility 	startTime 	43.4
scalar RSUExampleScenario.node[18].veinsmobility 	totalTime 	306.6
scalar RSUExampleScenario.node[18].veinsmobility 	stopTime 	350
scalar RSUExampleScenario.node[18].veinsmobility 	minSpeed 	0
scalar RSUExampleScenario.node[18].veinsmobility 	maxSpeed 	13.99997268266
scalar RSUExampleScenario.node[18].veinsmobility 	totalDistance 	2504.209805184
scalar RSUExampleScenario.node[18].veinsmobility 	totalCO2Emission 	610.89628698675
scalar RSUExampleScenario.node[19].veinsmobility 	startTime 	45.8
scalar RSUExampleScenario.node[19].veinsmobility 	totalTime 	304.2
scalar RSUExampleScenario.node[19].veinsmobility 	stopTime 	350
scalar RSUExampleScenario.node[19].veinsmobility 	minSpeed 	0
scalar RSUExampleScenario.node[19].veinsmobility 	maxSpeed 	13.999919065954
scalar RSUExampleScenario.node[19].veinsmobility 	totalDistance 	2474.6683031497
scalar RSUExampleScenario.node[19].veinsmobility 	totalCO2Emission 	605.46438875786
scalar RSUExampleScenario.node[2].veinsmobility 	startTime 	4.9
scalar RSUExampleScenario.node[2].veinsmobility 	totalTime 	345.1
scalar RSUExampleScenario.node[2].veinsmobility 	stopTime 	350
scalar RSUExampleScenario.node[2].veinsmobility 	minSpeed 	0
scalar RSUExampleScenario.node[2].veinsmobility 	maxSpeed 	13.999999782646
scalar RSUExampleScenario.node[2].veinsmobility 	totalDistance 	3034.8425251538
scalar RSUExampleScenario.node[2].veinsmobility 	totalCO2Emission 	721.72069979724
scalar RSUExampleScenario.node[20].veinsmobility 	startTime 	48.3
scalar RSUExampleScenario.node[20].veinsmobility 	totalTime 	301.7
scalar RSUExampleScenario.node[20].veinsmobility 	stopTime 	350
scalar RSUExampleScenario.node[20].veinsmobility 	minSpeed 	0
scalar RSUExampleScenario.node[20].veinsmobility 	maxSpeed 	13.999847157185
scalar RSUExampleScenario.node[20].veinsmobility 	totalDistance 	2435.3604221213
scalar RSUExampleScenario.node[20].veinsmobility 	totalCO2Emission 	604.12487202951
scalar RSUExampleScenario.node[21].veinsmobility 	startTime 	50.7
scalar RSUExampleScenario.node[21].veinsmobility 	totalTime 	299.3
scalar RSUExampleScenario.node[21].veinsmobility 	stopTime 	350
scalar RSUExampleScenario.node[21].veinsmobility 	minSpeed 	0
scalar RSUExampleScenario.node[21].veinsmobility 	maxSpeed 	13.999986259365
scalar RSUExampleScenario.node[21].veinsmobility 	totalDistance 	2408.1097665293
scalar RSUExampleScenario.node[21].veinsmobility 	totalCO2Emission 	595.37242215858
scalar RSUExampleScenario.node[22].veinsmobility 	startTime 	53.1
scalar RSUExampleScenario.node[22].veinsmobility 	totalTime 	296.9
scalar RSUExampleScenario.node[22].veinsmobility 	stopTime 	350
scalar RSUExampleScenario.node[22].veinsmobility 	minSpeed 	0
scalar RSUExampleScenario.node[22].veinsmobility 	maxSpeed 	13.999944323134
scalar RSUExampleScenario.node[22].veinsmobility 	totalDistance 	2366.7128253617
scalar RSUExampleScenario.node[22].veinsmobility 	totalCO2Emission 	589.28999016062
scalar RSUExampleScenario.node[23].veinsmobility 	startTime 	55.5
scalar RSUExampleScenario.node[23].veinsmobility 	totalTime 	294.5
scalar RSUExampleScenario.node[23].veinsmobility 	stopTime 	350
scalar RSUExampleScenario.node[23].veinsmobility 	minSpeed 	0
scalar RSUExampleScenario.node[23].veinsmobility 	maxSpeed 	13.999909342122
scalar RSUExampleScenario.node[23].veinsmobility 	totalDistance 	2338.6257006566
scalar RSUExampleScenario.node[23].veinsmobility 	totalCO2Emission 	585.48721197106
scalar RSUExampleScenario.node[24].veinsmobility 	startTime 	57.9
scalar RSUExampleScenario.node[24].veinsmobility 	totalTime 	292.1
scalar RSUExampleScenario.node[24].veinsmobility 	stopTime 	350
scalar RSUExampleScenario.node[24].veinsmobility 	minSpeed 	0
scalar RSUExampleScenario.node[24].veinsmobility 	maxSpeed 	13.999878300792
scalar RSUExampleScenario.node[24].veinsmobility 	totalDistance 	2300.9130047174
scalar RSUExampleScenario.node[24].veinsmobility 	totalCO2Emission 	578.93145300664
scalar RSUExampleScenario.node[25].veinsmobility 	startTime 	60.3
scalar RSUExampleScenario.node[25].veinsmobility 	totalTime 	289.7
scalar RSUExampleScenario.node[25].veinsmobility 	stopTime 	350
scalar RSUExampleScenario.node[25].veinsmobility 	minSpeed 	0
scalar RSUExampleScenario.node[25].veinsmobility 	maxSpeed 	13.999943854888
scalar RSUExampleScenario.node[25].veinsmobility 	totalDistance 	2271.1471072531
scalar RSUExampleScenario.node[25].veinsmobility 	totalCO2Emission 	571.8872741421
scalar RSUExampleScenario.node[26].veinsmobility 	startTime 	62.7
scalar RSUExampleScenario.node[26].veinsmobility 	totalTime 	287.3
scalar RSUExampleScenario.node[26].veinsmobility 	stopTime 	350
scalar RSUExampleScenario.node[26].veinsmobility 	minSpeed 	0
scalar RSUExampleScenario.node[26].veinsmobility 	maxSpeed 	13.999876127187
scalar RSUExampleScenario.node[26].veinsmobility 	totalDistance 	2230.8108569202
scalar RSUExampleScenario.node[26].veinsmobility 	totalCO2Emission 	569.96527244811
scalar RSUExampleScenario.node[27].veinsmobility 	startTime 	65.1
scalar RSUExampleScenario.node[27].veinsmobility 	totalTime 	284.9
scalar RSUExampleScenario.node[27].veinsmobility 	stopTime 	350
scalar RSUExampleScenario.node[27].veinsmobility 	minSpeed 	0
scalar RSUExampleScenario.node[27].veinsmobility 	maxSpeed 	13.999799747474
scalar RSUExampleScenario.node[27].veinsmobility 	totalDistance 	2203.7618104702
scalar RSUExampleScenario.node[27].veinsmobility 	totalCO2Emission 	566.02381136646
scalar RSUExampleScenario.node[28].veinsmobility 	startTime 	67.5
scalar RSUExampleScenario.node[28].veinsmobility 	totalTime 	282.5
scalar RSUExampleScenario.node[28].veinsmobility 	stopTime 	350
scalar RSUExampleScenario.node[28].veinsmobility 	minSpeed 	0
scalar RSUExampleScenario.node[28].veinsmobility 	maxSpeed 	13.999681859429
scalar RSUExampleScenario.node[28].veinsmobility 	totalDistance 	2167.0436940557
scalar RSUExampleScenario.node[28].veinsmobility 	totalCO2Emission 	556.99649406194
scalar RSUExampleScenario.node[29].veinsmobility 	startTime 	69.9
scalar RSUExampleScenario.node[29].veinsmobility 	totalTime 	280.1
scalar RSUExampleScenario.node[29].veinsmobility 	stopTime 	350
scalar RSUExampleScenario.node[29].veinsmobility 	minSpeed 	0
scalar RSUExampleScenario.node[29].veinsmobility 	maxSpeed 	13.999874297427
scalar RSUExampleScenario.node[29].veinsmobility 	totalDistance 	2134.664905746
scalar RSUExampleScenario.node[29].veinsmobility 	totalCO2Emission 	552.17193900137
scalar RSUExampleScenario.node[3].veinsmobility 	startTime 	7.3
scalar RSUExampleScenario.node[3].veinsmobility 	totalTime 	342.7
scalar RSUExampleScenario.node[3].veinsmobility 	stopTime 	350
scalar RSUExampleScenario.node[3].veinsmobility 	minSpeed 	0
scalar RSUExampleScenario.node[3].veinsmobility 	maxSpeed 	13.999928849353
scalar RSUExampleScenario.node[3].veinsmobility 	totalDistance 	2997.5539730143
scalar RSUExampleScenario.node[3].veinsmobility 	totalCO2Emission 	716.53158216475
scalar RSUExampleScenario.node[30].veinsmobility 	startTime 	72.4
scalar RSUExampleScenario.node[30].veinsmobility 	totalTime 	277.6
scalar RSUExampleScenario.node[30].veinsmobility 	stopTime 	350
scalar RSUExampleScenario.node[30].veinsmobility 	minSpeed 	0
scalar RSUExampleScenario.node[30].veinsmobility 	maxSpeed 	13.999586561893
scalar RSUExampleScenario.node[30].veinsmobility 	totalDistance 	2099.3238274685
scalar RSUExampleScenario.node[30].veinsmobility 	totalCO2Emission 	544.93543134108
scalar RSUExampleScenario.node[31].veinsmobility 	startTime 	74.8
scalar RSUExampleScenario.node[31].veinsmobility 	totalTime 	275.2
scalar RSUExampleScenario.node[31].veinsmobility 	stopTime 	350
scalar RSUExampleScenario.node[31].veinsmobility 	minSpeed 	0
scalar RSUExampleScenario.node[31].veinsmobility 	maxSpeed 	13.999791137837
scalar RSUExampleScenario.node[31].veinsmobility 	totalDistance 	2067.0425266341
scalar RSUExampleScenario.node[31].veinsmobility 	totalCO2Emission 	541.7938567835
scalar RSUExampleScenario.node[32].veinsmobility 	startTime 	77.2
scalar RSUExampleScenario.node[32].veinsmobility 	totalTime 	272.8
scalar RSUExampleScenario.node[32].veinsmobility 	stopTime 	350
scalar RSUExampleScenario.node[32].veinsmobility 	minSpeed 	0
scalar RSUExampleScenario.node[32].veinsmobility 	maxSpeed 	13.999904402962
scalar RSUExampleScenario.node[32].veinsmobility 	totalDistance 	2029.7896746824
scalar RSUExampleScenario.node[32].veinsmobility 	totalCO2Emission 	534.99568243144
scalar RSUExampleScenario.node[33].veinsmobility 	startTime 	79.6
scalar RSUExampleScenario.node[33].veinsmobility 	totalTime 	270.4
scalar RSUExampleScenario.node[33].veinsmobility 	stopTime 	350
scalar RSUExampleScenario.node[33].veinsmobility 	minSpeed 	0
scalar RSUExampleScenario.node[33].veinsmobility 	maxSpeed 	13.999760141606
scalar RSUExampleScenario.node[33].veinsmobility 	totalDistance 	1997.0358705731
scalar RSUExampleScenario.node[33].veinsmobility 	totalCO2Emission 	529.28615239311
scalar RSUExampleScenario.node[34].veinsmobility 	startTime 	82
scalar RSUExampleScenario.node[34].veinsmobility 	totalTime 	268
scalar RSUExampleScenario.node[34].veinsmobility 	stopTime 	350
scalar RSUExampleScenario.node[34].veinsmobility 	minSpeed 	0
scalar RSUExampleScenario.node[34].veinsmobility 	maxSpeed 	13.999849353279
scalar RSUExampleScenario.node[34].veinsmobility 	totalDistance 	1963.7637345947
scalar RSUExampleScenario.node[34].veinsmobility 	totalCO2Emission 	524.17272823741
scalar RSUExampleScenario.node[35].veinsmobility 	startTime 	84.4
scalar RSUExampleScenario.node[35].veinsmobility 	totalTime 	265.6
scalar RSUExampleScenario.node[35].veinsmobility 	stopTime 	350
scalar RSUExampleScenario.node[35].veinsmobility 	minSpeed 	0
scalar RSUExampleScenario.node[35].veinsmobility 	maxSpeed 	13.99990767027
scalar RSUExampleScenario.node[35].veinsmobility 	totalDistance 	1929.2127512051
scalar RSUExampleScenario.node[35].veinsmobility 	totalCO2Emission 	514.90939994653
scalar RSUExampleScenario.node[36].veinsmobility 	startTime 	86.8
scalar RSUExampleScenario.node[36].veinsmobility 	totalTime 	263.2
scalar RSUExampleScenario.node[36].veinsmobility 	stopTime 	350
scalar RSUExampleScenario.node[36].veinsmobility 	minSpeed 	0
scalar RSUExampleScenario.node[36].veinsmobility 	maxSpeed 	13.999890299686
scalar RSUExampleScenario.node[36].veinsmobility 	totalDistance 	1896.6250442093
scalar RSUExampleScenario.node[36].veinsmobility 	totalCO2Emission 	512.90170463635
scalar RSUExampleScenario.node[37].veinsmobility 	startTime 	89.2
scalar RSUExampleScenario.node[37].veinsmobility 	totalTime 	260.8
scalar RSUExampleScenario.node[37].veinsmobility 	stopTime 	350
scalar RSUExampleScenario.node[37].veinsmobility 	minSpeed 	0
scalar RSUExampleScenario.node[37].veinsmobility 	maxSpeed 	13.999946182224
scalar RSUExampleScenario.node[37].veinsmobility 	totalDistance 	1861.9791605733
scalar RSUExampleScenario.node[37].veinsmobility 	totalCO2Emission 	504.00475393846
scalar RSUExampleScenario.node[38].veinsmobility 	startTime 	91.6
scalar RSUExampleScenario.node[38].veinsmobility 	totalTime 	258.4
scalar RSUExampleScenario.node[38].veinsmobility 	stopTime 	350
scalar RSUExampleScenario.node[38].veinsmobility 	minSpeed 	0
scalar RSUExampleScenario.node[38].veinsmobility 	maxSpeed 	13.99986113824
scalar RSUExampleScenario.node[38].veinsmobility 	totalDistance 	1829.9589787599
scalar RSUExampleScenario.node[38].veinsmobility 	totalCO2Emission 	500.74711394782
scalar RSUExampleScenario.node[39].veinsmobility 	startTime 	94
scalar RSUExampleScenario.node[39].veinsmobility 	totalTime 	256
scalar RSUExampleScenario.node[39].veinsmobility 	stopTime 	350
scalar RSUExampleScenario.node[39].veinsmobility 	minSpeed 	0
scalar RSUExampleScenario.node[39].veinsmobility 	maxSpeed 	13.999899974847
scalar RSUExampleScenario.node[39].veinsmobility 	totalDistance 	1796.1355529699
scalar RSUExampleScenario.node[39].veinsmobility 	totalCO2Emission 	496.30197136896
scalar RSUExampleScenario.node[4].veinsmobility 	startTime 	9.7
scalar RSUExampleScenario.node[4].veinsmobility 	totalTime 	340.3
scalar RSUExampleScenario.node[4].veinsmobility 	stopTime 	350
scalar RSUExampleScenario.node[4].veinsmobility 	minSpeed 	0
scalar RSUExampleScenario.node[4].veinsmobility 	maxSpeed 	13.999999526457
scalar RSUExampleScenario.node[4].veinsmobility 	totalDistance 	2946.6519695157
scalar RSUExampleScenario.node[4].veinsmobility 	totalCO2Emission 	703.39400504366
scalar RSUExampleScenario.node[40].veinsmobility 	startTime 	96.5
scalar RSUExampleScenario.node[40].veinsmobility 	totalTime 	253.5
scalar RSUExampleScenario.node[40].veinsmobility 	stopTime 	350
scalar RSUExampleScenario.node[40].veinsmobility 	minSpeed 	0
scalar RSUExampleScenario.node[40].veinsmobility 	maxSpeed 	13.99988534733
scalar RSUExampleScenario.node[40].veinsmobility 	totalDistance 	1761.6384923479
scalar RSUExampleScenario.node[40].veinsmobility 	totalCO2Emission 	489.07341835285
scalar RSUExampleScenario.node[41].veinsmobility 	startTime 	98.9
scalar RSUExampleScenario.node[41].veinsmobility 	totalTime 	251.1
scalar RSUExampleScenario.node[41].veinsmobility 	stopTime 	350
scalar RSUExampleScenario.node[41].veinsmobility 	minSpeed 	0
scalar RSUExampleScenario.node[41].veinsmobility 	maxSpeed 	13.999852243992
scalar RSUExampleScenario.node[41].veinsmobility 	totalDistance 	1728.556689406
scalar RSUExampleScenario.node[41].veinsmobility 	totalCO2Emission 	483.61898755619
scalar RSUExampleScenario.node[42].veinsmobility 	startTime 	101.3
scalar RSUExampleScenario.node[42].veinsmobility 	totalTime 	248.7
scalar RSUExampleScenario.node[42].veinsmobility 	stopTime 	350
scalar RSUExampleScenario.node[42].veinsmobility 	minSpeed 	0
scalar RSUExampleScenario.node[42].veinsmobility 	maxSpeed 	13.999974423524
scalar RSUExampleScenario.node[42].veinsmobility 	totalDistance 	1696.0779938593
scalar RSUExampleScenario.node[42].veinsmobility 	totalCO2Emission 	477.75444369669
scalar RSUExampleScenario.node[43].veinsmobility 	startTime 	103.7
scalar RSUExampleScenario.node[43].veinsmobility 	totalTime 	246.3
scalar RSUExampleScenario.node[43].veinsmobility 	stopTime 	350
scalar RSUExampleScenario.node[43].veinsmobility 	minSpeed 	0
scalar RSUExampleScenario.node[43].veinsmobility 	maxSpeed 	13.999718965827
scalar RSUExampleScenario.node[43].veinsmobility 	totalDistance 	1662.3354513173
scalar RSUExampleScenario.node[43].veinsmobility 	totalCO2Emission 	474.18181642662
scalar RSUExampleScenario.node[44].veinsmobility 	startTime 	106.1
scalar RSUExampleScenario.node[44].veinsmobility 	totalTime 	243.9
scalar RSUExampleScenario.node[44].veinsmobility 	stopTime 	350
scalar RSUExampleScenario.node[44].veinsmobility 	minSpeed 	0
scalar RSUExampleScenario.node[44].veinsmobility 	maxSpeed 	13.999857280918
scalar RSUExampleScenario.node[44].veinsmobility 	totalDistance 	1629.0655508172
scalar RSUExampleScenario.node[44].veinsmobility 	totalCO2Emission 	467.21493701752
scalar RSUExampleScenario.node[45].veinsmobility 	startTime 	108.5
scalar RSUExampleScenario.node[45].veinsmobility 	totalTime 	241.5
scalar RSUExampleScenario.node[45].veinsmobility 	stopTime 	350
scalar RSUExampleScenario.node[45].veinsmobility 	minSpeed 	0
scalar RSUExampleScenario.node[45].veinsmobility 	maxSpeed 	13.999994819453
scalar RSUExampleScenario.node[45].veinsmobility 	totalDistance 	1594.8948678785
scalar RSUExampleScenario.node[45].veinsmobility 	totalCO2Emission 	463.17817872338
scalar RSUExampleScenario.node[46].veinsmobility 	startTime 	110.9
scalar RSUExampleScenario.node[46].veinsmobility 	totalTime 	239.1
scalar RSUExampleScenario.node[46].veinsmobility 	stopTime 	350
scalar RSUExampleScenario.node[46].veinsmobility 	minSpeed 	0
scalar RSUExampleScenario.node[46].veinsmobility 	maxSpeed 	13.999981846293
scalar RSUExampleScenario.node[46].veinsmobility 	totalDistance 	1561.7637876866
scalar RSUExampleScenario.node[46].veinsmobility 	totalCO2Emission 	456.83809960597
scalar RSUExampleScenario.node[47].veinsmobility 	startTime 	113.3
scalar RSUExampleScenario.node[47].veinsmobility 	totalTime 	236.7
scalar RSUExampleScenario.node[47].veinsmobility 	stopTime 	350
scalar RSUExampleScenario.node[47].veinsmobility 	minSpeed 	0
scalar RSUExampleScenario.node[47].veinsmobility 	maxSpeed 	13.999888804387
scalar RSUExampleScenario.node[47].veinsmobility 	totalDistance 	1529.0981952656
scalar RSUExampleScenario.node[47].veinsmobility 	totalCO2Emission 	453.07028135995
scalar RSUExampleScenario.node[48].veinsmobility 	startTime 	115.7
scalar RSUExampleScenario.node[48].veinsmobility 	totalTime 	234.3
scalar RSUExampleScenario.node[48].veinsmobility 	stopTime 	350
scalar RSUExampleScenario.node[48].veinsmobility 	minSpeed 	0
scalar RSUExampleScenario.node[48].veinsmobility 	maxSpeed 	13.999913066749
scalar RSUExampleScenario.node[48].veinsmobility 	totalDistance 	1496.3225934035
scalar RSUExampleScenario.node[48].veinsmobility 	totalCO2Emission 	445.16504100454
scalar RSUExampleScenario.node[49].veinsmobility 	startTime 	118.1
scalar RSUExampleScenario.node[49].veinsmobility 	totalTime 	231.9
scalar RSUExampleScenario.node[49].veinsmobility 	stopTime 	350
scalar RSUExampleScenario.node[49].veinsmobility 	minSpeed 	0
scalar RSUExampleScenario.node[49].veinsmobility 	maxSpeed 	13.99985595285
scalar RSUExampleScenario.node[49].veinsmobility 	totalDistance 	1461.4101670251
scalar RSUExampleScenario.node[49].veinsmobility 	totalCO2Emission 	439.64875145587
scalar RSUExampleScenario.node[5].veinsmobility 	startTime 	12.1
scalar RSUExampleScenario.node[5].veinsmobility 	totalTime 	337.9
scalar RSUExampleScenario.node[5].veinsmobility 	stopTime 	350
scalar RSUExampleScenario.node[5].veinsmobility 	minSpeed 	0
scalar RSUExampleScenario.node[5].veinsmobility 	maxSpeed 	13.999983394076
scalar RSUExampleScenario.node[5].veinsmobility 	totalDistance 	2917.9529246868
scalar RSUExampleScenario.node[5].veinsmobility 	totalCO2Emission 	687.60437304344
scalar RSUExampleScenario.node[50].veinsmobility 	startTime 	120.6
scalar RSUExampleScenario.node[50].veinsmobility 	totalTime 	229.4
scalar RSUExampleScenario.node[50].veinsmobility 	stopTime 	350
scalar RSUExampleScenario.node[50].veinsmobility 	minSpeed 	0
scalar RSUExampleScenario.node[50].veinsmobility 	maxSpeed 	13.999841692271
scalar RSUExampleScenario.node[50].veinsmobility 	totalDistance 	1427.4731879295
scalar RSUExampleScenario.node[50].veinsmobility 	totalCO2Emission 	432.50678928725
scalar RSUExampleScenario.node[51].veinsmobility 	startTime 	123
scalar RSUExampleScenario.node[51].veinsmobility 	totalTime 	227
scalar RSUExampleScenario.node[51].veinsmobility 	stopTime 	350
scalar RSUExampleScenario.node[51].veinsmobility 	minSpeed 	0
scalar RSUExampleScenario.node[51].veinsmobility 	maxSpeed 	13.999991931948
scalar RSUExampleScenario.node[51].veinsmobility 	totalDistance 	1394.1301114847
scalar RSUExampleScenario.node[51].veinsmobility 	totalCO2Emission 	426.1352785294
scalar RSUExampleScenario.node[52].veinsmobility 	startTime 	125.4
scalar RSUExampleScenario.node[52].veinsmobility 	totalTime 	224.6
scalar RSUExampleScenario.node[52].veinsmobility 	stopTime 	350
scalar RSUExampleScenario.node[52].veinsmobility 	minSpeed 	0
scalar RSUExampleScenario.node[52].veinsmobility 	maxSpeed 	13.999927172386
scalar RSUExampleScenario.node[52].veinsmobility 	totalDistance 	1358.5604050151
scalar RSUExampleScenario.node[52].veinsmobility 	totalCO2Emission 	423.45898195747
scalar RSUExampleScenario.node[53].veinsmobility 	startTime 	127.8
scalar RSUExampleScenario.node[53].veinsmobility 	totalTime 	222.2
scalar RSUExampleScenario.node[53].veinsmobility 	stopTime 	350
scalar RSUExampleScenario.node[53].veinsmobility 	minSpeed 	0
scalar RSUExampleScenario.node[53].veinsmobility 	maxSpeed 	13.999868207024
scalar RSUExampleScenario.node[53].veinsmobility 	totalDistance 	1326.2859091322
scalar RSUExampleScenario.node[53].veinsmobility 	totalCO2Emission 	416.24319265719
scalar RSUExampleScenario.node[54].veinsmobility 	startTime 	130.2
scalar RSUExampleScenario.node[54].veinsmobility 	totalTime 	219.8
scalar RSUExampleScenario.node[54].veinsmobility 	stopTime 	350
scalar RSUExampleScenario.node[54].veinsmobility 	minSpeed 	0
scalar RSUExampleScenario.node[54].veinsmobility 	maxSpeed 	13.99990957455
scalar RSUExampleScenario.node[54].veinsmobility 	totalDistance 	1293.1662638153
scalar RSUExampleScenario.node[54].veinsmobility 	totalCO2Emission 	411.84152198523
scalar RSUExampleScenario.node[55].veinsmobility 	startTime 	132.6
scalar RSUExampleScenario.node[55].veinsmobility 	totalTime 	217.4
scalar RSUExampleScenario.node[55].veinsmobility 	stopTime 	350
scalar RSUExampleScenario.node[55].veinsmobility 	minSpeed 	0
scalar RSUExampleScenario.node[55].veinsmobility 	maxSpeed 	13.999988876032
scalar RSUExampleScenario.node[55].veinsmobility 	totalDistance 	1259.7425296224
scalar RSUExampleScenario.node[55].veinsmobility 	totalCO2Emission 	403.50536049612
scalar RSUExampleScenario.node[56].veinsmobility 	startTime 	135
scalar RSUExampleScenario.node[56].veinsmobility 	totalTime 	215
scalar RSUExampleScenario.node[56].veinsmobility 	stopTime 	350
scalar RSUExampleScenario.node[56].veinsmobility 	minSpeed 	0
scalar RSUExampleScenario.node[56].veinsmobility 	maxSpeed 	13.99988935926
scalar RSUExampleScenario.node[56].veinsmobility 	totalDistance 	1224.3948825807
scalar RSUExampleScenario.node[56].veinsmobility 	totalCO2Emission 	401.7841456855
scalar RSUExampleScenario.node[57].veinsmobility 	startTime 	137.4
scalar RSUExampleScenario.node[57].veinsmobility 	totalTime 	212.6
scalar RSUExampleScenario.node[57].veinsmobility 	stopTime 	350
scalar RSUExampleScenario.node[57].veinsmobility 	minSpeed 	0
scalar RSUExampleScenario.node[57].veinsmobility 	maxSpeed 	13.999988406848
scalar RSUExampleScenario.node[57].veinsmobility 	totalDistance 	1191.9463556839
scalar RSUExampleScenario.node[57].veinsmobility 	totalCO2Emission 	392.63936230087
scalar RSUExampleScenario.node[58].veinsmobility 	startTime 	139.8
scalar RSUExampleScenario.node[58].veinsmobility 	totalTime 	210.2
scalar RSUExampleScenario.node[58].veinsmobility 	stopTime 	350
scalar RSUExampleScenario.node[58].veinsmobility 	minSpeed 	0
scalar RSUExampleScenario.node[58].veinsmobility 	maxSpeed 	13.999787315021
scalar RSUExampleScenario.node[58].veinsmobility 	totalDistance 	1158.9323327548
scalar RSUExampleScenario.node[58].veinsmobility 	totalCO2Emission 	385.13606162247
scalar RSUExampleScenario.node[59].veinsmobility 	startTime 	142.2
scalar RSUExampleScenario.node[59].veinsmobility 	totalTime 	207.8
scalar RSUExampleScenario.node[59].veinsmobility 	stopTime 	350
scalar RSUExampleScenario.node[59].veinsmobility 	minSpeed 	0
scalar RSUExampleScenario.node[59].veinsmobility 	maxSpeed 	13.999757486256
scalar RSUExampleScenario.node[59].veinsmobility 	totalDistance 	1126.2165274979
scalar RSUExampleScenario.node[59].veinsmobility 	totalCO2Emission 	382.25286828088
scalar RSUExampleScenario.node[6].veinsmobility 	startTime 	14.5
scalar RSUExampleScenario.node[6].veinsmobility 	totalTime 	335.5
scalar RSUExampleScenario.node[6].veinsmobility 	stopTime 	350
scalar RSUExampleScenario.node[6].veinsmobility 	minSpeed 	0
scalar RSUExampleScenario.node[6].veinsmobility 	maxSpeed 	13.99974397148
scalar RSUExampleScenario.node[6].veinsmobility 	totalDistance 	2901.5931976802
scalar RSUExampleScenario.node[6].veinsmobility 	totalCO2Emission 	681.86072841774
scalar RSUExampleScenario.node[60].veinsmobility 	startTime 	144.7
scalar RSUExampleScenario.node[60].veinsmobility 	totalTime 	205.3
scalar RSUExampleScenario.node[60].veinsmobility 	stopTime 	350
scalar RSUExampleScenario.node[60].veinsmobility 	minSpeed 	0
scalar RSUExampleScenario.node[60].veinsmobility 	maxSpeed 	13.999731994923
scalar RSUExampleScenario.node[60].veinsmobility 	totalDistance 	1091.1145604631
scalar RSUExampleScenario.node[60].veinsmobility 	totalCO2Emission 	374.79127456218
scalar RSUExampleScenario.node[61].veinsmobility 	startTime 	147.1
scalar RSUExampleScenario.node[61].veinsmobility 	totalTime 	202.9
scalar RSUExampleScenario.node[61].veinsmobility 	stopTime 	350
scalar RSUExampleScenario.node[61].veinsmobility 	minSpeed 	0
scalar RSUExampleScenario.node[61].veinsmobility 	maxSpeed 	13.99979767666
scalar RSUExampleScenario.node[61].veinsmobility 	totalDistance 	1058.5185802944
scalar RSUExampleScenario.node[61].veinsmobility 	totalCO2Emission 	372.48639088366
scalar RSUExampleScenario.node[62].veinsmobility 	startTime 	149.5
scalar RSUExampleScenario.node[62].veinsmobility 	totalTime 	200.5
scalar RSUExampleScenario.node[62].veinsmobility 	stopTime 	350
scalar RSUExampleScenario.node[62].veinsmobility 	minSpeed 	0
scalar RSUExampleScenario.node[62].veinsmobility 	maxSpeed 	13.999501470721
scalar RSUExampleScenario.node[62].veinsmobility 	totalDistance 	1024.873144935
scalar RSUExampleScenario.node[62].veinsmobility 	totalCO2Emission 	365.83733230415
scalar RSUExampleScenario.node[63].veinsmobility 	startTime 	151.9
scalar RSUExampleScenario.node[63].veinsmobility 	totalTime 	198.1
scalar RSUExampleScenario.node[63].veinsmobility 	stopTime 	350
scalar RSUExampleScenario.node[63].veinsmobility 	minSpeed 	0
scalar RSUExampleScenario.node[63].veinsmobility 	maxSpeed 	13.999795437586
scalar RSUExampleScenario.node[63].veinsmobility 	totalDistance 	986.14820433984
scalar RSUExampleScenario.node[63].veinsmobility 	totalCO2Emission 	351.85315923228
scalar RSUExampleScenario.node[64].veinsmobility 	startTime 	154.3
scalar RSUExampleScenario.node[64].veinsmobility 	totalTime 	195.7
scalar RSUExampleScenario.node[64].veinsmobility 	stopTime 	350
scalar RSUExampleScenario.node[64].veinsmobility 	minSpeed 	0
scalar RSUExampleScenario.node[64].veinsmobility 	maxSpeed 	13.999566191842
scalar RSUExampleScenario.node[64].veinsmobility 	totalDistance 	954.49279004962
scalar RSUExampleScenario.node[64].veinsmobility 	totalCO2Emission 	338.31931225143
scalar RSUExampleScenario.node[65].veinsmobility 	startTime 	156.7
scalar RSUExampleScenario.node[65].veinsmobility 	totalTime 	193.3
scalar RSUExampleScenario.node[65].veinsmobility 	stopTime 	350
scalar RSUExampleScenario.node[65].veinsmobility 	minSpeed 	0
scalar RSUExampleScenario.node[65].veinsmobility 	maxSpeed 	13.999999071439
scalar RSUExampleScenario.node[65].veinsmobility 	totalDistance 	940.59687063308
scalar RSUExampleScenario.node[65].veinsmobility 	totalCO2Emission 	330.91625968629
scalar RSUExampleScenario.node[66].veinsmobility 	startTime 	159.1
scalar RSUExampleScenario.node[66].veinsmobility 	totalTime 	190.9
scalar RSUExampleScenario.node[66].veinsmobility 	stopTime 	350
scalar RSUExampleScenario.node[66].veinsmobility 	minSpeed 	0
scalar RSUExampleScenario.node[66].veinsmobility 	maxSpeed 	13.999737294635
scalar RSUExampleScenario.node[66].veinsmobility 	totalDistance 	928.49480651549
scalar RSUExampleScenario.node[66].veinsmobility 	totalCO2Emission 	328.15576130031
scalar RSUExampleScenario.node[67].veinsmobility 	startTime 	161.5
scalar RSUExampleScenario.node[67].veinsmobility 	totalTime 	188.5
scalar RSUExampleScenario.node[67].veinsmobility 	stopTime 	350
scalar RSUExampleScenario.node[67].veinsmobility 	minSpeed 	0
scalar RSUExampleScenario.node[67].veinsmobility 	maxSpeed 	13.999849053081
scalar RSUExampleScenario.node[67].veinsmobility 	totalDistance 	913.17011123703
scalar RSUExampleScenario.node[67].veinsmobility 	totalCO2Emission 	323.83906595519
scalar RSUExampleScenario.node[68].veinsmobility 	startTime 	163.9
scalar RSUExampleScenario.node[68].veinsmobility 	totalTime 	186.1
scalar RSUExampleScenario.node[68].veinsmobility 	stopTime 	350
scalar RSUExampleScenario.node[68].veinsmobility 	minSpeed 	0
scalar RSUExampleScenario.node[68].veinsmobility 	maxSpeed 	13.999632773355
scalar RSUExampleScenario.node[68].veinsmobility 	totalDistance 	894.17370311847
scalar RSUExampleScenario.node[68].veinsmobility 	totalCO2Emission 	320.88677501742
scalar RSUExampleScenario.node[69].veinsmobility 	startTime 	166.3
scalar RSUExampleScenario.node[69].veinsmobility 	totalTime 	183.7
scalar RSUExampleScenario.node[69].veinsmobility 	stopTime 	350
scalar RSUExampleScenario.node[69].veinsmobility 	minSpeed 	0
scalar RSUExampleScenario.node[69].veinsmobility 	maxSpeed 	13.999858317778
scalar RSUExampleScenario.node[69].veinsmobility 	totalDistance 	859.76448665935
scalar RSUExampleScenario.node[69].veinsmobility 	totalCO2Emission 	316.42206591406
scalar RSUExampleScenario.node[7].veinsmobility 	startTime 	16.9
scalar RSUExampleScenario.node[7].veinsmobility 	totalTime 	333.1
scalar RSUExampleScenario.node[7].veinsmobility 	stopTime 	350
scalar RSUExampleScenario.node[7].veinsmobility 	minSpeed 	0
scalar RSUExampleScenario.node[7].veinsmobility 	maxSpeed 	13.999972143678
scalar RSUExampleScenario.node[7].veinsmobility 	totalDistance 	2889.6102488322
scalar RSUExampleScenario.node[7].veinsmobility 	totalCO2Emission 	676.73136355988
scalar RSUExampleScenario.node[70].veinsmobility 	startTime 	168.8
scalar RSUExampleScenario.node[70].veinsmobility 	totalTime 	181.2
scalar RSUExampleScenario.node[70].veinsmobility 	stopTime 	350
scalar RSUExampleScenario.node[70].veinsmobility 	minSpeed 	0
scalar RSUExampleScenario.node[70].veinsmobility 	maxSpeed 	13.999838492763
scalar RSUExampleScenario.node[70].veinsmobility 	totalDistance 	825.99642508832
scalar RSUExampleScenario.node[70].veinsmobility 	totalCO2Emission 	311.37318942526
scalar RSUExampleScenario.node[71].veinsmobility 	startTime 	171.2
scalar RSUExampleScenario.node[71].veinsmobility 	totalTime 	178.8
scalar RSUExampleScenario.node[71].veinsmobility 	stopTime 	350
scalar RSUExampleScenario.node[71].veinsmobility 	minSpeed 	0
scalar RSUExampleScenario.node[71].veinsmobility 	maxSpeed 	13.999934499448
scalar RSUExampleScenario.node[71].veinsmobility 	totalDistance 	791.20002577767
scalar RSUExampleScenario.node[71].veinsmobility 	totalCO2Emission 	304.80544945278
scalar RSUExampleScenario.node[72].veinsmobility 	startTime 	173.6
scalar RSUExampleScenario.node[72].veinsmobility 	totalTime 	176.4
scalar RSUExampleScenario.node[72].veinsmobility 	stopTime 	350
scalar RSUExampleScenario.node[72].veinsmobility 	minSpeed 	0
scalar RSUExampleScenario.node[72].veinsmobility 	maxSpeed 	13.999993473708
scalar RSUExampleScenario.node[72].veinsmobility 	totalDistance 	757.43693530336
scalar RSUExampleScenario.node[72].veinsmobility 	totalCO2Emission 	299.75847631829
scalar RSUExampleScenario.node[73].veinsmobility 	startTime 	176
scalar RSUExampleScenario.node[73].veinsmobility 	totalTime 	174
scalar RSUExampleScenario.node[73].veinsmobility 	stopTime 	350
scalar RSUExampleScenario.node[73].veinsmobility 	minSpeed 	0
scalar RSUExampleScenario.node[73].veinsmobility 	maxSpeed 	13.999590712027
scalar RSUExampleScenario.node[73].veinsmobility 	totalDistance 	725.67838852874
scalar RSUExampleScenario.node[73].veinsmobility 	totalCO2Emission 	292.43287954098
scalar RSUExampleScenario.node[74].veinsmobility 	startTime 	178.4
scalar RSUExampleScenario.node[74].veinsmobility 	totalTime 	171.6
scalar RSUExampleScenario.node[74].veinsmobility 	stopTime 	350
scalar RSUExampleScenario.node[74].veinsmobility 	minSpeed 	0
scalar RSUExampleScenario.node[74].veinsmobility 	maxSpeed 	13.999335516784
scalar RSUExampleScenario.node[74].veinsmobility 	totalDistance 	690.15747636728
scalar RSUExampleScenario.node[74].veinsmobility 	totalCO2Emission 	287.18455695452
scalar RSUExampleScenario.node[75].veinsmobility 	startTime 	180.8
scalar RSUExampleScenario.node[75].veinsmobility 	totalTime 	169.2
scalar RSUExampleScenario.node[75].veinsmobility 	stopTime 	350
scalar RSUExampleScenario.node[75].veinsmobility 	minSpeed 	0
scalar RSUExampleScenario.node[75].veinsmobility 	maxSpeed 	13.999983508913
scalar RSUExampleScenario.node[75].veinsmobility 	totalDistance 	657.64555920844
scalar RSUExampleScenario.node[75].veinsmobility 	totalCO2Emission 	280.71077776061
scalar RSUExampleScenario.node[76].veinsmobility 	startTime 	183.2
scalar RSUExampleScenario.node[76].veinsmobility 	totalTime 	166.8
scalar RSUExampleScenario.node[76].veinsmobility 	stopTime 	350
scalar RSUExampleScenario.node[76].veinsmobility 	minSpeed 	0
scalar RSUExampleScenario.node[76].veinsmobility 	maxSpeed 	13.999528410104
scalar RSUExampleScenario.node[76].veinsmobility 	totalDistance 	621.20658748867
scalar RSUExampleScenario.node[76].veinsmobility 	totalCO2Emission 	276.21963602319
scalar RSUExampleScenario.node[77].veinsmobility 	startTime 	185.6
scalar RSUExampleScenario.node[77].veinsmobility 	totalTime 	164.4
scalar RSUExampleScenario.node[77].veinsmobility 	stopTime 	350
scalar RSUExampleScenario.node[77].veinsmobility 	minSpeed 	0
scalar RSUExampleScenario.node[77].veinsmobility 	maxSpeed 	13.999670308409
scalar RSUExampleScenario.node[77].veinsmobility 	totalDistance 	588.70243461617
scalar RSUExampleScenario.node[77].veinsmobility 	totalCO2Emission 	270.63971447109
scalar RSUExampleScenario.node[78].veinsmobility 	startTime 	188
scalar RSUExampleScenario.node[78].veinsmobility 	totalTime 	162
scalar RSUExampleScenario.node[78].veinsmobility 	stopTime 	350
scalar RSUExampleScenario.node[78].veinsmobility 	minSpeed 	0
scalar RSUExampleScenario.node[78].veinsmobility 	maxSpeed 	13.999015016248
scalar RSUExampleScenario.node[78].veinsmobility 	totalDistance 	555.48891415874
scalar RSUExampleScenario.node[78].veinsmobility 	totalCO2Emission 	264.37755626677
scalar RSUExampleScenario.node[79].veinsmobility 	startTime 	190.4
scalar RSUExampleScenario.node[79].veinsmobility 	totalTime 	159.6
scalar RSUExampleScenario.node[79].veinsmobility 	stopTime 	350
scalar RSUExampleScenario.node[79].veinsmobility 	minSpeed 	0
scalar RSUExampleScenario.node[79].veinsmobility 	maxSpeed 	13.999441165244
scalar RSUExampleScenario.node[79].veinsmobility 	totalDistance 	522.76877056472
scalar RSUExampleScenario.node[79].veinsmobility 	totalCO2Emission 	258.63854219896
scalar RSUExampleScenario.node[8].veinsmobility 	startTime 	19.3
scalar RSUExampleScenario.node[8].veinsmobility 	totalTime 	330.7
scalar RSUExampleScenario.node[8].veinsmobility 	stopTime 	350
scalar RSUExampleScenario.node[8].veinsmobility 	minSpeed 	0
scalar RSUExampleScenario.node[8].veinsmobility 	maxSpeed 	13.999990210275
scalar RSUExampleScenario.node[8].veinsmobility 	totalDistance 	2858.7443209974
scalar RSUExampleScenario.node[8].veinsmobility 	totalCO2Emission 	671.27791897805
scalar RSUExampleScenario.node[80].veinsmobility 	startTime 	192.9
scalar RSUExampleScenario.node[80].veinsmobility 	totalTime 	157.1
scalar RSUExampleScenario.node[80].veinsmobility 	stopTime 	350
scalar RSUExampleScenario.node[80].veinsmobility 	minSpeed 	0
scalar RSUExampleScenario.node[80].veinsmobility 	maxSpeed 	13.999310182785
scalar RSUExampleScenario.node[80].veinsmobility 	totalDistance 	488.52780452364
scalar RSUExampleScenario.node[80].veinsmobility 	totalCO2Emission 	253.01039510332
scalar RSUExampleScenario.node[81].veinsmobility 	startTime 	195.3
scalar RSUExampleScenario.node[81].veinsmobility 	totalTime 	154.7
scalar RSUExampleScenario.node[81].veinsmobility 	stopTime 	350
scalar RSUExampleScenario.node[81].veinsmobility 	minSpeed 	0
scalar RSUExampleScenario.node[81].veinsmobility 	maxSpeed 	13.999202545022
scalar RSUExampleScenario.node[81].veinsmobility 	totalDistance 	455.94322212463
scalar RSUExampleScenario.node[81].veinsmobility 	totalCO2Emission 	247.91123755735
scalar RSUExampleScenario.node[82].veinsmobility 	startTime 	197.7
scalar RSUExampleScenario.node[82].veinsmobility 	totalTime 	152.3
scalar RSUExampleScenario.node[82].veinsmobility 	stopTime 	350
scalar RSUExampleScenario.node[82].veinsmobility 	minSpeed 	0
scalar RSUExampleScenario.node[82].veinsmobility 	maxSpeed 	13.999311797249
scalar RSUExampleScenario.node[82].veinsmobility 	totalDistance 	422.52272969235
scalar RSUExampleScenario.node[82].veinsmobility 	totalCO2Emission 	241.43646563173
scalar RSUExampleScenario.node[83].veinsmobility 	startTime 	200.1
scalar RSUExampleScenario.node[83].veinsmobility 	totalTime 	149.9
scalar RSUExampleScenario.node[83].veinsmobility 	stopTime 	350
scalar RSUExampleScenario.node[83].veinsmobility 	minSpeed 	0
scalar RSUExampleScenario.node[83].veinsmobility 	maxSpeed 	13.999275787822
scalar RSUExampleScenario.node[83].veinsmobility 	totalDistance 	388.905949791
scalar RSUExampleScenario.node[83].veinsmobility 	totalCO2Emission 	236.19852763892
scalar RSUExampleScenario.node[84].veinsmobility 	startTime 	202.5
scalar RSUExampleScenario.node[84].veinsmobility 	totalTime 	147.5
scalar RSUExampleScenario.node[84].veinsmobility 	stopTime 	350
scalar RSUExampleScenario.node[84].veinsmobility 	minSpeed 	0
scalar RSUExampleScenario.node[84].veinsmobility 	maxSpeed 	13.997832711183
scalar RSUExampleScenario.node[84].veinsmobility 	totalDistance 	355.20383986061
scalar RSUExampleScenario.node[84].veinsmobility 	totalCO2Emission 	230.89641174565
scalar RSUExampleScenario.node[85].veinsmobility 	startTime 	204.9
scalar RSUExampleScenario.node[85].veinsmobility 	totalTime 	145.1
scalar RSUExampleScenario.node[85].veinsmobility 	stopTime 	350
scalar RSUExampleScenario.node[85].veinsmobility 	minSpeed 	0
scalar RSUExampleScenario.node[85].veinsmobility 	maxSpeed 	13.998314298776
scalar RSUExampleScenario.node[85].veinsmobility 	totalDistance 	321.52196167981
scalar RSUExampleScenario.node[85].veinsmobility 	totalCO2Emission 	225.41624752871
scalar RSUExampleScenario.node[86].veinsmobility 	startTime 	207.3
scalar RSUExampleScenario.node[86].veinsmobility 	totalTime 	142.7
scalar RSUExampleScenario.node[86].veinsmobility 	stopTime 	350
scalar RSUExampleScenario.node[86].veinsmobility 	minSpeed 	0
scalar RSUExampleScenario.node[86].veinsmobility 	maxSpeed 	13.850362534099
scalar RSUExampleScenario.node[86].veinsmobility 	totalDistance 	285.9063663504
scalar RSUExampleScenario.node[86].veinsmobility 	totalCO2Emission 	217.16037942284
scalar RSUExampleScenario.node[87].veinsmobility 	startTime 	209.7
scalar RSUExampleScenario.node[87].veinsmobility 	totalTime 	140.3
scalar RSUExampleScenario.node[87].veinsmobility 	stopTime 	350
scalar RSUExampleScenario.node[87].veinsmobility 	minSpeed 	0
scalar RSUExampleScenario.node[87].veinsmobility 	maxSpeed 	13.875926425783
scalar RSUExampleScenario.node[87].veinsmobility 	totalDistance 	249.13414274311
scalar RSUExampleScenario.node[87].veinsmobility 	totalCO2Emission 	201.98238935008
scalar RSUExampleScenario.node[88].veinsmobility 	startTime 	212.1
scalar RSUExampleScenario.node[88].veinsmobility 	totalTime 	137.9
scalar RSUExampleScenario.node[88].veinsmobility 	stopTime 	350
