version 2
run statisticLeach-148-20150323-03:43:48-9640
attr c 21
attr configname statisticLeach
attr datetime 20150323-03:43:48
attr experiment statisticLeach
attr inifile omnetpp.ini
attr iterationvars "$p=1/20, $c=21"
attr iterationvars2 "$p=1/20, $c=21, $repetition=8"
attr measurement "$p=1/20, $c=21"
attr network RSUExampleScenario
attr p 1/20
attr processid 9640
attr repetition 8
attr replication #8
attr resultdir results
attr runnumber 148
attr seedset 148

scalar . 	c 	21
scalar RSUExampleScenario.node[0].appl 	meanClusterNodes 	2
scalar RSUExampleScenario.node[0].appl 	meanClusterHeadUtility 	17.000794863958
scalar RSUExampleScenario.node[0].appl 	NumberofCH 	0.054054054054054
scalar RSUExampleScenario.node[0].appl 	NumberofON 	0.21621621621622
scalar RSUExampleScenario.node[0].appl 	NumberofFN 	0.72972972972973
scalar RSUExampleScenario.node[0].veinsmobility 	startTime 	0.1
scalar RSUExampleScenario.node[0].veinsmobility 	totalTime 	449.9
scalar RSUExampleScenario.node[0].veinsmobility 	stopTime 	450
scalar RSUExampleScenario.node[0].veinsmobility 	minSpeed 	0
scalar RSUExampleScenario.node[0].veinsmobility 	maxSpeed 	13.999979083946
scalar RSUExampleScenario.node[0].veinsmobility 	totalDistance 	3136.2202401062
scalar RSUExampleScenario.node[0].veinsmobility 	totalCO2Emission 	841.25467276005
scalar RSUExampleScenario.node[1].appl 	meanClusterNodes 	0
scalar RSUExampleScenario.node[1].appl 	meanClusterHeadUtility 	0
scalar RSUExampleScenario.node[1].appl 	NumberofCH 	0
scalar RSUExampleScenario.node[1].appl 	NumberofON 	0.027027027027027
scalar RSUExampleScenario.node[1].appl 	NumberofFN 	0.97297297297297
scalar RSUExampleScenario.node[1].veinsmobility 	startTime 	2.5
scalar RSUExampleScenario.node[1].veinsmobility 	totalTime 	447.5
scalar RSUExampleScenario.node[1].veinsmobility 	stopTime 	450
scalar RSUExampleScenario.node[1].veinsmobility 	minSpeed 	0
scalar RSUExampleScenario.node[1].veinsmobility 	maxSpeed 	13.999919810214
scalar RSUExampleScenario.node[1].veinsmobility 	totalDistance 	3083.3744649061
scalar RSUExampleScenario.node[1].veinsmobility 	totalCO2Emission 	835.09370830048
scalar RSUExampleScenario.node[10].appl 	meanClusterNodes 	2
scalar RSUExampleScenario.node[10].appl 	meanClusterHeadUtility 	18.316802269719
scalar RSUExampleScenario.node[10].appl 	NumberofCH 	0.054054054054054
scalar RSUExampleScenario.node[10].appl 	NumberofON 	0.45945945945946
scalar RSUExampleScenario.node[10].appl 	NumberofFN 	0.48648648648649
scalar RSUExampleScenario.node[10].veinsmobility 	startTime 	24.2
scalar RSUExampleScenario.node[10].veinsmobility 	totalTime 	425.8
scalar RSUExampleScenario.node[10].veinsmobility 	stopTime 	450
scalar RSUExampleScenario.node[10].veinsmobility 	minSpeed 	0
scalar RSUExampleScenario.node[10].veinsmobility 	maxSpeed 	13.99996466564
scalar RSUExampleScenario.node[10].veinsmobility 	totalDistance 	2793.6935702386
scalar RSUExampleScenario.node[10].veinsmobility 	totalCO2Emission 	761.87613840251
scalar RSUExampleScenario.node[11].appl 	meanClusterNodes 	0
scalar RSUExampleScenario.node[11].appl 	meanClusterHeadUtility 	0
scalar RSUExampleScenario.node[11].appl 	NumberofCH 	0
scalar RSUExampleScenario.node[11].appl 	NumberofON 	0.59459459459459
scalar RSUExampleScenario.node[11].appl 	NumberofFN 	0.40540540540541
scalar RSUExampleScenario.node[11].veinsmobility 	startTime 	26.6
scalar RSUExampleScenario.node[11].veinsmobility 	totalTime 	423.4
scalar RSUExampleScenario.node[11].veinsmobility 	stopTime 	450
scalar RSUExampleScenario.node[11].veinsmobility 	minSpeed 	0
scalar RSUExampleScenario.node[11].veinsmobility 	maxSpeed 	13.999884335501
scalar RSUExampleScenario.node[11].veinsmobility 	totalDistance 	2753.6601531156
scalar RSUExampleScenario.node[11].veinsmobility 	totalCO2Emission 	752.36560443333
scalar RSUExampleScenario.node[12].appl 	meanClusterNodes 	6.5
scalar RSUExampleScenario.node[12].appl 	meanClusterHeadUtility 	17.901704175239
scalar RSUExampleScenario.node[12].appl 	NumberofCH 	0.054054054054054
scalar RSUExampleScenario.node[12].appl 	NumberofON 	0.45945945945946
scalar RSUExampleScenario.node[12].appl 	NumberofFN 	0.48648648648649
scalar RSUExampleScenario.node[12].veinsmobility 	startTime 	29
scalar RSUExampleScenario.node[12].veinsmobility 	totalTime 	421
scalar RSUExampleScenario.node[12].veinsmobility 	stopTime 	450
scalar RSUExampleScenario.node[12].veinsmobility 	minSpeed 	0
scalar RSUExampleScenario.node[12].veinsmobility 	maxSpeed 	13.999958885696
scalar RSUExampleScenario.node[12].veinsmobility 	totalDistance 	2723.6141767372
scalar RSUExampleScenario.node[12].veinsmobility 	totalCO2Emission 	747.77454301031
scalar RSUExampleScenario.node[13].appl 	meanClusterNodes 	4.5
scalar RSUExampleScenario.node[13].appl 	meanClusterHeadUtility 	16.658528234837
scalar RSUExampleScenario.node[13].appl 	NumberofCH 	0.054054054054054
scalar RSUExampleScenario.node[13].appl 	NumberofON 	0.51351351351351
scalar RSUExampleScenario.node[13].appl 	NumberofFN 	0.43243243243243
scalar RSUExampleScenario.node[13].veinsmobility 	startTime 	31.4
scalar RSUExampleScenario.node[13].veinsmobility 	totalTime 	418.6
scalar RSUExampleScenario.node[13].veinsmobility 	stopTime 	450
scalar RSUExampleScenario.node[13].veinsmobility 	minSpeed 	0
scalar RSUExampleScenario.node[13].veinsmobility 	maxSpeed 	13.999918059756
scalar RSUExampleScenario.node[13].veinsmobility 	totalDistance 	2680.7397813062
scalar RSUExampleScenario.node[13].veinsmobility 	totalCO2Emission 	744.34288552938
scalar RSUExampleScenario.node[14].appl 	meanClusterNodes 	5
scalar RSUExampleScenario.node[14].appl 	meanClusterHeadUtility 	18.291683804214
scalar RSUExampleScenario.node[14].appl 	NumberofCH 	0.054054054054054
scalar RSUExampleScenario.node[14].appl 	NumberofON 	0.40540540540541
scalar RSUExampleScenario.node[14].appl 	NumberofFN 	0.54054054054054
scalar RSUExampleScenario.node[14].veinsmobility 	startTime 	33.8
scalar RSUExampleScenario.node[14].veinsmobility 	totalTime 	416.2
scalar RSUExampleScenario.node[14].veinsmobility 	stopTime 	450
scalar RSUExampleScenario.node[14].veinsmobility 	minSpeed 	0
scalar RSUExampleScenario.node[14].veinsmobility 	maxSpeed 	13.999891031324
scalar RSUExampleScenario.node[14].veinsmobility 	totalDistance 	2654.114583864
scalar RSUExampleScenario.node[14].veinsmobility 	totalCO2Emission 	737.13837414802
scalar RSUExampleScenario.node[15].appl 	meanClusterNodes 	6
scalar RSUExampleScenario.node[15].appl 	meanClusterHeadUtility 	17.230896588653
scalar RSUExampleScenario.node[15].appl 	NumberofCH 	0.054054054054054
scalar RSUExampleScenario.node[15].appl 	NumberofON 	0.37837837837838
scalar RSUExampleScenario.node[15].appl 	NumberofFN 	0.56756756756757
scalar RSUExampleScenario.node[15].veinsmobility 	startTime 	36.2
scalar RSUExampleScenario.node[15].veinsmobility 	totalTime 	413.8
scalar RSUExampleScenario.node[15].veinsmobility 	stopTime 	450
scalar RSUExampleScenario.node[15].veinsmobility 	minSpeed 	0
scalar RSUExampleScenario.node[15].veinsmobility 	maxSpeed 	13.999998055918
scalar RSUExampleScenario.node[15].veinsmobility 	totalDistance 	2614.3024408304
scalar RSUExampleScenario.node[15].veinsmobility 	totalCO2Emission 	728.18015174859
scalar RSUExampleScenario.node[16].appl 	meanClusterNodes 	9.5
scalar RSUExampleScenario.node[16].appl 	meanClusterHeadUtility 	16.553171774432
scalar RSUExampleScenario.node[16].appl 	NumberofCH 	0.054054054054054
scalar RSUExampleScenario.node[16].appl 	NumberofON 	0.35135135135135
scalar RSUExampleScenario.node[16].appl 	NumberofFN 	0.59459459459459
scalar RSUExampleScenario.node[16].veinsmobility 	startTime 	38.6
scalar RSUExampleScenario.node[16].veinsmobility 	totalTime 	411.4
scalar RSUExampleScenario.node[16].veinsmobility 	stopTime 	450
scalar RSUExampleScenario.node[16].veinsmobility 	minSpeed 	0
scalar RSUExampleScenario.node[16].veinsmobility 	maxSpeed 	13.999985301413
scalar RSUExampleScenario.node[16].veinsmobility 	totalDistance 	2583.4263006825
scalar RSUExampleScenario.node[16].veinsmobility 	totalCO2Emission 	725.16668532424
scalar RSUExampleScenario.node[17].appl 	meanClusterNodes 	0
scalar RSUExampleScenario.node[17].appl 	meanClusterHeadUtility 	0
scalar RSUExampleScenario.node[17].appl 	NumberofCH 	0
scalar RSUExampleScenario.node[17].appl 	NumberofON 	0.13513513513514
scalar RSUExampleScenario.node[17].appl 	NumberofFN 	0.86486486486486
scalar RSUExampleScenario.node[17].veinsmobility 	startTime 	41
scalar RSUExampleScenario.node[17].veinsmobility 	totalTime 	409
scalar RSUExampleScenario.node[17].veinsmobility 	stopTime 	450
scalar RSUExampleScenario.node[17].veinsmobility 	minSpeed 	0
scalar RSUExampleScenario.node[17].veinsmobility 	maxSpeed 	13.999852686147
scalar RSUExampleScenario.node[17].veinsmobility 	totalDistance 	2538.1249451367
scalar RSUExampleScenario.node[17].veinsmobility 	totalCO2Emission 	716.23982201863
scalar RSUExampleScenario.node[18].appl 	meanClusterNodes 	0
scalar RSUExampleScenario.node[18].appl 	meanClusterHeadUtility 	0
scalar RSUExampleScenario.node[18].appl 	NumberofCH 	0
scalar RSUExampleScenario.node[18].appl 	NumberofON 	0.24324324324324
scalar RSUExampleScenario.node[18].appl 	NumberofFN 	0.75675675675676
scalar RSUExampleScenario.node[18].veinsmobility 	startTime 	43.4
scalar RSUExampleScenario.node[18].veinsmobility 	totalTime 	406.6
scalar RSUExampleScenario.node[18].veinsmobility 	stopTime 	450
scalar RSUExampleScenario.node[18].veinsmobility 	minSpeed 	0
scalar RSUExampleScenario.node[18].veinsmobility 	maxSpeed 	13.999943065802
scalar RSUExampleScenario.node[18].veinsmobility 	totalDistance 	2508.0977952669
scalar RSUExampleScenario.node[18].veinsmobility 	totalCO2Emission 	710.75921742102
scalar RSUExampleScenario.node[19].appl 	meanClusterNodes 	7.5
scalar RSUExampleScenario.node[19].appl 	meanClusterHeadUtility 	16.750175235311
scalar RSUExampleScenario.node[19].appl 	NumberofCH 	0.054054054054054
scalar RSUExampleScenario.node[19].appl 	NumberofON 	0.10810810810811
scalar RSUExampleScenario.node[19].appl 	NumberofFN 	0.83783783783784
scalar RSUExampleScenario.node[19].veinsmobility 	startTime 	45.8
scalar RSUExampleScenario.node[19].veinsmobility 	totalTime 	404.2
scalar RSUExampleScenario.node[19].veinsmobility 	stopTime 	450
scalar RSUExampleScenario.node[19].veinsmobility 	minSpeed 	0
scalar RSUExampleScenario.node[19].veinsmobility 	maxSpeed 	13.999923359377
scalar RSUExampleScenario.node[19].veinsmobility 	totalDistance 	2470.7761842723
scalar RSUExampleScenario.node[19].veinsmobility 	totalCO2Emission 	707.50075186844
scalar RSUExampleScenario.node[2].appl 	meanClusterNodes 	8
scalar RSUExampleScenario.node[2].appl 	meanClusterHeadUtility 	8.8829980596919
scalar RSUExampleScenario.node[2].appl 	NumberofCH 	0.10810810810811
scalar RSUExampleScenario.node[2].appl 	NumberofON 	0.027027027027027
scalar RSUExampleScenario.node[2].appl 	NumberofFN 	0.86486486486486
scalar RSUExampleScenario.node[2].veinsmobility 	startTime 	4.9
scalar RSUExampleScenario.node[2].veinsmobility 	totalTime 	445.1
scalar RSUExampleScenario.node[2].veinsmobility 	stopTime 	450
scalar RSUExampleScenario.node[2].veinsmobility 	minSpeed 	0
scalar RSUExampleScenario.node[2].veinsmobility 	maxSpeed 	13.999993946434
scalar RSUExampleScenario.node[2].veinsmobility 	totalDistance 	3042.5044554366
scalar RSUExampleScenario.node[2].veinsmobility 	totalCO2Emission 	819.33999592464
scalar RSUExampleScenario.node[20].appl 	meanClusterNodes 	0
scalar RSUExampleScenario.node[20].appl 	meanClusterHeadUtility 	0
scalar RSUExampleScenario.node[20].appl 	NumberofCH 	0
scalar RSUExampleScenario.node[20].appl 	NumberofON 	0.37837837837838
scalar RSUExampleScenario.node[20].appl 	NumberofFN 	0.62162162162162
scalar RSUExampleScenario.node[20].veinsmobility 	startTime 	48.3
scalar RSUExampleScenario.node[20].veinsmobility 	totalTime 	401.7
scalar RSUExampleScenario.node[20].veinsmobility 	stopTime 	450
scalar RSUExampleScenario.node[20].veinsmobility 	minSpeed 	0
scalar RSUExampleScenario.node[20].veinsmobility 	maxSpeed 	13.999982709626
scalar RSUExampleScenario.node[20].veinsmobility 	totalDistance 	2440.9556276476
scalar RSUExampleScenario.node[20].veinsmobility 	totalCO2Emission 	698.54541158673
scalar RSUExampleScenario.node[21].appl 	meanClusterNodes 	7
scalar RSUExampleScenario.node[21].appl 	meanClusterHeadUtility 	17.04530886943
scalar RSUExampleScenario.node[21].appl 	NumberofCH 	0.054054054054054
scalar RSUExampleScenario.node[21].appl 	NumberofON 	0.21621621621622
scalar RSUExampleScenario.node[21].appl 	NumberofFN 	0.72972972972973
scalar RSUExampleScenario.node[21].veinsmobility 	startTime 	50.7
scalar RSUExampleScenario.node[21].veinsmobility 	totalTime 	399.3
scalar RSUExampleScenario.node[21].veinsmobility 	stopTime 	450
scalar RSUExampleScenario.node[21].veinsmobility 	minSpeed 	0
scalar RSUExampleScenario.node[21].veinsmobility 	maxSpeed 	13.999860266673
scalar RSUExampleScenario.node[21].veinsmobility 	totalDistance 	2401.8244143584
scalar RSUExampleScenario.node[21].veinsmobility 	totalCO2Emission 	695.34377613965
scalar RSUExampleScenario.node[22].appl 	meanClusterNodes 	7.5
scalar RSUExampleScenario.node[22].appl 	meanClusterHeadUtility 	16.737514574128
scalar RSUExampleScenario.node[22].appl 	NumberofCH 	0.054054054054054
scalar RSUExampleScenario.node[22].appl 	NumberofON 	0.24324324324324
scalar RSUExampleScenario.node[22].appl 	NumberofFN 	0.7027027027027
scalar RSUExampleScenario.node[22].veinsmobility 	startTime 	53.1
scalar RSUExampleScenario.node[22].veinsmobility 	totalTime 	396.9
scalar RSUExampleScenario.node[22].veinsmobility 	stopTime 	450
scalar RSUExampleScenario.node[22].veinsmobility 	minSpeed 	0
scalar RSUExampleScenario.node[22].veinsmobility 	maxSpeed 	13.999825605019
scalar RSUExampleScenario.node[22].veinsmobility 	totalDistance 	2371.5500407807
scalar RSUExampleScenario.node[22].veinsmobility 	totalCO2Emission 	685.0885034932
scalar RSUExampleScenario.node[23].appl 	meanClusterNodes 	4.5
scalar RSUExampleScenario.node[23].appl 	meanClusterHeadUtility 	17.512768818038
scalar RSUExampleScenario.node[23].appl 	NumberofCH 	0.054054054054054
scalar RSUExampleScenario.node[23].appl 	NumberofON 	0.64864864864865
scalar RSUExampleScenario.node[23].appl 	NumberofFN 	0.2972972972973
scalar RSUExampleScenario.node[23].veinsmobility 	startTime 	55.5
scalar RSUExampleScenario.node[23].veinsmobility 	totalTime 	394.5
scalar RSUExampleScenario.node[23].veinsmobility 	stopTime 	450
scalar RSUExampleScenario.node[23].veinsmobility 	minSpeed 	0
scalar RSUExampleScenario.node[23].veinsmobility 	maxSpeed 	13.999700091076
scalar RSUExampleScenario.node[23].veinsmobility 	totalDistance 	2335.0783500878
scalar RSUExampleScenario.node[23].veinsmobility 	totalCO2Emission 	683.5932719938
scalar RSUExampleScenario.node[24].appl 	meanClusterNodes 	0
scalar RSUExampleScenario.node[24].appl 	meanClusterHeadUtility 	0
scalar RSUExampleScenario.node[24].appl 	NumberofCH 	0
scalar RSUExampleScenario.node[24].appl 	NumberofON 	0.40540540540541
scalar RSUExampleScenario.node[24].appl 	NumberofFN 	0.59459459459459
scalar RSUExampleScenario.node[24].veinsmobility 	startTime 	57.9
scalar RSUExampleScenario.node[24].veinsmobility 	totalTime 	392.1
scalar RSUExampleScenario.node[24].veinsmobility 	stopTime 	450
scalar RSUExampleScenario.node[24].veinsmobility 	minSpeed 	0
scalar RSUExampleScenario.node[24].veinsmobility 	maxSpeed 	13.999891483013
scalar RSUExampleScenario.node[24].veinsmobility 	totalDistance 	2304.7355283982
scalar RSUExampleScenario.node[24].veinsmobility 	totalCO2Emission 	679.56795322464
scalar RSUExampleScenario.node[25].appl 	meanClusterNodes 	1
scalar RSUExampleScenario.node[25].appl 	meanClusterHeadUtility 	16.022465732235
scalar RSUExampleScenario.node[25].appl 	NumberofCH 	0.054054054054054
scalar RSUExampleScenario.node[25].appl 	NumberofON 	0.35135135135135
scalar RSUExampleScenario.node[25].appl 	NumberofFN 	0.59459459459459
scalar RSUExampleScenario.node[25].veinsmobility 	startTime 	60.3
scalar RSUExampleScenario.node[25].veinsmobility 	totalTime 	389.7
scalar RSUExampleScenario.node[25].veinsmobility 	stopTime 	450
scalar RSUExampleScenario.node[25].veinsmobility 	minSpeed 	0
scalar RSUExampleScenario.node[25].veinsmobility 	maxSpeed 	13.999910466033
scalar RSUExampleScenario.node[25].veinsmobility 	totalDistance 	2266.4350412031
scalar RSUExampleScenario.node[25].veinsmobility 	totalCO2Emission 	670.57537523775
scalar RSUExampleScenario.node[26].appl 	meanClusterNodes 	12
scalar RSUExampleScenario.node[26].appl 	meanClusterHeadUtility 	17.386795337912
scalar RSUExampleScenario.node[26].appl 	NumberofCH 	0.054054054054054
scalar RSUExampleScenario.node[26].appl 	NumberofON 	0.2972972972973
scalar RSUExampleScenario.node[26].appl 	NumberofFN 	0.64864864864865
scalar RSUExampleScenario.node[26].veinsmobility 	startTime 	62.7
scalar RSUExampleScenario.node[26].veinsmobility 	totalTime 	387.3
scalar RSUExampleScenario.node[26].veinsmobility 	stopTime 	450
scalar RSUExampleScenario.node[26].veinsmobility 	minSpeed 	0
scalar RSUExampleScenario.node[26].veinsmobility 	maxSpeed 	13.999898111308
scalar RSUExampleScenario.node[26].veinsmobility 	totalDistance 	2238.1781874561
scalar RSUExampleScenario.node[26].veinsmobility 	totalCO2Emission 	665.78200058271
scalar RSUExampleScenario.node[27].appl 	meanClusterNodes 	6
scalar RSUExampleScenario.node[27].appl 	meanClusterHeadUtility 	18.049108700374
scalar RSUExampleScenario.node[27].appl 	NumberofCH 	0.054054054054054
scalar RSUExampleScenario.node[27].appl 	NumberofON 	0.62162162162162
scalar RSUExampleScenario.node[27].appl 	NumberofFN 	0.32432432432432
scalar RSUExampleScenario.node[27].veinsmobility 	startTime 	65.1
scalar RSUExampleScenario.node[27].veinsmobility 	totalTime 	384.9
scalar RSUExampleScenario.node[27].veinsmobility 	stopTime 	450
scalar RSUExampleScenario.node[27].veinsmobility 	minSpeed 	0
scalar RSUExampleScenario.node[27].veinsmobility 	maxSpeed 	13.999515209964
scalar RSUExampleScenario.node[27].veinsmobility 	totalDistance 	2199.8963981442
scalar RSUExampleScenario.node[27].veinsmobility 	totalCO2Emission 	662.52379637871
scalar RSUExampleScenario.node[28].appl 	meanClusterNodes 	0
scalar RSUExampleScenario.node[28].appl 	meanClusterHeadUtility 	0
scalar RSUExampleScenario.node[28].appl 	NumberofCH 	0
scalar RSUExampleScenario.node[28].appl 	NumberofON 	0.64864864864865
scalar RSUExampleScenario.node[28].appl 	NumberofFN 	0.35135135135135
scalar RSUExampleScenario.node[28].veinsmobility 	startTime 	67.5
scalar RSUExampleScenario.node[28].veinsmobility 	totalTime 	382.5
scalar RSUExampleScenario.node[28].veinsmobility 	stopTime 	450
scalar RSUExampleScenario.node[28].veinsmobility 	minSpeed 	0
scalar RSUExampleScenario.node[28].veinsmobility 	maxSpeed 	13.999986071491
scalar RSUExampleScenario.node[28].veinsmobility 	totalDistance 	2169.0128203403
scalar RSUExampleScenario.node[28].veinsmobility 	totalCO2Emission 	655.68191931329
scalar RSUExampleScenario.node[29].appl 	meanClusterNodes 	0
scalar RSUExampleScenario.node[29].appl 	meanClusterHeadUtility 	0
scalar RSUExampleScenario.node[29].appl 	NumberofCH 	0
scalar RSUExampleScenario.node[29].appl 	NumberofON 	0.35135135135135
scalar RSUExampleScenario.node[29].appl 	NumberofFN 	0.64864864864865
scalar RSUExampleScenario.node[29].veinsmobility 	startTime 	69.9
scalar RSUExampleScenario.node[29].veinsmobility 	totalTime 	380.1
scalar RSUExampleScenario.node[29].veinsmobility 	stopTime 	450
scalar RSUExampleScenario.node[29].veinsmobility 	minSpeed 	0
scalar RSUExampleScenario.node[29].veinsmobility 	maxSpeed 	13.999959202118
scalar RSUExampleScenario.node[29].veinsmobility 	totalDistance 	2133.1675742453
scalar RSUExampleScenario.node[29].veinsmobility 	totalCO2Emission 	646.76868669363
scalar RSUExampleScenario.node[3].appl 	meanClusterNodes 	4
scalar RSUExampleScenario.node[3].appl 	meanClusterHeadUtility 	34.173669342291
scalar RSUExampleScenario.node[3].appl 	NumberofCH 	0.027027027027027
scalar RSUExampleScenario.node[3].appl 	NumberofON 	0.43243243243243
scalar RSUExampleScenario.node[3].appl 	NumberofFN 	0.54054054054054
scalar RSUExampleScenario.node[3].veinsmobility 	startTime 	7.3
scalar RSUExampleScenario.node[3].veinsmobility 	totalTime 	442.7
scalar RSUExampleScenario.node[3].veinsmobility 	stopTime 	450
scalar RSUExampleScenario.node[3].veinsmobility 	minSpeed 	0
scalar RSUExampleScenario.node[3].veinsmobility 	maxSpeed 	13.999969569356
scalar RSUExampleScenario.node[3].veinsmobility 	totalDistance 	2993.539463878
scalar RSUExampleScenario.node[3].veinsmobility 	totalCO2Emission 	815.32819419002
scalar RSUExampleScenario.node[30].appl 	meanClusterNodes 	5.5
scalar RSUExampleScenario.node[30].appl 	meanClusterHeadUtility 	7.9219443057844
scalar RSUExampleScenario.node[30].appl 	NumberofCH 	0.10810810810811
scalar RSUExampleScenario.node[30].appl 	NumberofON 	0.27027027027027
scalar RSUExampleScenario.node[30].appl 	NumberofFN 	0.62162162162162
scalar RSUExampleScenario.node[30].veinsmobility 	startTime 	72.4
scalar RSUExampleScenario.node[30].veinsmobility 	totalTime 	377.6
scalar RSUExampleScenario.node[30].veinsmobility 	stopTime 	450
scalar RSUExampleScenario.node[30].veinsmobility 	minSpeed 	0
scalar RSUExampleScenario.node[30].veinsmobility 	maxSpeed 	13.999976411131
scalar RSUExampleScenario.node[30].veinsmobility 	totalDistance 	2102.8714348203
scalar RSUExampleScenario.node[30].veinsmobility 	totalCO2Emission 	645.26315816089
scalar RSUExampleScenario.node[31].appl 	meanClusterNodes 	6.25
scalar RSUExampleScenario.node[31].appl 	meanClusterHeadUtility 	9.2084531001024
scalar RSUExampleScenario.node[31].appl 	NumberofCH 	0.10810810810811
scalar RSUExampleScenario.node[31].appl 	NumberofON 	0.51351351351351
scalar RSUExampleScenario.node[31].appl 	NumberofFN 	0.37837837837838
scalar RSUExampleScenario.node[31].veinsmobility 	startTime 	74.8
scalar RSUExampleScenario.node[31].veinsmobility 	totalTime 	375.2
scalar RSUExampleScenario.node[31].veinsmobility 	stopTime 	450
scalar RSUExampleScenario.node[31].veinsmobility 	minSpeed 	0
scalar RSUExampleScenario.node[31].veinsmobility 	maxSpeed 	13.999845925248
scalar RSUExampleScenario.node[31].veinsmobility 	totalDistance 	2066.804726225
scalar RSUExampleScenario.node[31].veinsmobility 	totalCO2Emission 	638.00641732141
scalar RSUExampleScenario.node[32].appl 	meanClusterNodes 	0
scalar RSUExampleScenario.node[32].appl 	meanClusterHeadUtility 	0
scalar RSUExampleScenario.node[32].appl 	NumberofCH 	0
scalar RSUExampleScenario.node[32].appl 	NumberofON 	0.40540540540541
scalar RSUExampleScenario.node[32].appl 	NumberofFN 	0.59459459459459
scalar RSUExampleScenario.node[32].veinsmobility 	startTime 	77.2
scalar RSUExampleScenario.node[32].veinsmobility 	totalTime 	372.8
scalar RSUExampleScenario.node[32].veinsmobility 	stopTime 	450
scalar RSUExampleScenario.node[32].veinsmobility 	minSpeed 	0
scalar RSUExampleScenario.node[32].veinsmobility 	maxSpeed 	13.999792161772
scalar RSUExampleScenario.node[32].veinsmobility 	totalDistance 	2032.7120331958
scalar RSUExampleScenario.node[32].veinsmobility 	totalCO2Emission 	635.36501637337
scalar RSUExampleScenario.node[33].appl 	meanClusterNodes 	2
scalar RSUExampleScenario.node[33].appl 	meanClusterHeadUtility 	17.219028904118
scalar RSUExampleScenario.node[33].appl 	NumberofCH 	0.054054054054054
scalar RSUExampleScenario.node[33].appl 	NumberofON 	0.56756756756757
scalar RSUExampleScenario.node[33].appl 	NumberofFN 	0.37837837837838
scalar RSUExampleScenario.node[33].veinsmobility 	startTime 	79.6
scalar RSUExampleScenario.node[33].veinsmobility 	totalTime 	370.4
scalar RSUExampleScenario.node[33].veinsmobility 	stopTime 	450
scalar RSUExampleScenario.node[33].veinsmobility 	minSpeed 	0
scalar RSUExampleScenario.node[33].veinsmobility 	maxSpeed 	13.999639440514
scalar RSUExampleScenario.node[33].veinsmobility 	totalDistance 	2000.1084704312
scalar RSUExampleScenario.node[33].veinsmobility 	totalCO2Emission 	629.81434707158
scalar RSUExampleScenario.node[34].appl 	meanClusterNodes 	0
scalar RSUExampleScenario.node[34].appl 	meanClusterHeadUtility 	0
scalar RSUExampleScenario.node[34].appl 	NumberofCH 	0
scalar RSUExampleScenario.node[34].appl 	NumberofON 	0.35135135135135
scalar RSUExampleScenario.node[34].appl 	NumberofFN 	0.64864864864865
scalar RSUExampleScenario.node[34].veinsmobility 	startTime 	82
scalar RSUExampleScenario.node[34].veinsmobility 	totalTime 	368
scalar RSUExampleScenario.node[34].veinsmobility 	stopTime 	450
scalar RSUExampleScenario.node[34].veinsmobility 	minSpeed 	0
scalar RSUExampleScenario.node[34].veinsmobility 	maxSpeed 	13.999907470713
scalar RSUExampleScenario.node[34].veinsmobility 	totalDistance 	1965.8016674571
scalar RSUExampleScenario.node[34].veinsmobility 	totalCO2Emission 	621.12734295807
scalar RSUExampleScenario.node[35].appl 	meanClusterNodes 	0
scalar RSUExampleScenario.node[35].appl 	meanClusterHeadUtility 	0
scalar RSUExampleScenario.node[35].appl 	NumberofCH 	0
scalar RSUExampleScenario.node[35].appl 	NumberofON 	0.40540540540541
scalar RSUExampleScenario.node[35].appl 	NumberofFN 	0.59459459459459
scalar RSUExampleScenario.node[35].veinsmobility 	startTime 	84.4
scalar RSUExampleScenario.node[35].veinsmobility 	totalTime 	365.6
scalar RSUExampleScenario.node[35].veinsmobility 	stopTime 	450
scalar RSUExampleScenario.node[35].veinsmobility 	minSpeed 	0
scalar RSUExampleScenario.node[35].veinsmobility 	maxSpeed 	13.999951348756
scalar RSUExampleScenario.node[35].veinsmobility 	totalDistance 	1932.8185623911
scalar RSUExampleScenario.node[35].veinsmobility 	totalCO2Emission 	617.26166728241
scalar RSUExampleScenario.node[36].appl 	meanClusterNodes 	0
scalar RSUExampleScenario.node[36].appl 	meanClusterHeadUtility 	0
scalar RSUExampleScenario.node[36].appl 	NumberofCH 	0
scalar RSUExampleScenario.node[36].appl 	NumberofON 	0.37837837837838
scalar RSUExampleScenario.node[36].appl 	NumberofFN 	0.62162162162162
scalar RSUExampleScenario.node[36].veinsmobility 	startTime 	86.8
scalar RSUExampleScenario.node[36].veinsmobility 	totalTime 	363.2
scalar RSUExampleScenario.node[36].veinsmobility 	stopTime 	450
scalar RSUExampleScenario.node[36].veinsmobility 	minSpeed 	0
scalar RSUExampleScenario.node[36].veinsmobility 	maxSpeed 	13.999804402993
scalar RSUExampleScenario.node[36].veinsmobility 	totalDistance 	1899.0694741498
scalar RSUExampleScenario.node[36].veinsmobility 	totalCO2Emission 	611.74738194524
scalar RSUExampleScenario.node[37].appl 	meanClusterNodes 	8.25
scalar RSUExampleScenario.node[37].appl 	meanClusterHeadUtility 	8.4651154219461
scalar RSUExampleScenario.node[37].appl 	NumberofCH 	0.10810810810811
scalar RSUExampleScenario.node[37].appl 	NumberofON 	0.37837837837838
scalar RSUExampleScenario.node[37].appl 	NumberofFN 	0.51351351351351
scalar RSUExampleScenario.node[37].veinsmobility 	startTime 	89.2
scalar RSUExampleScenario.node[37].veinsmobility 	totalTime 	360.8
scalar RSUExampleScenario.node[37].veinsmobility 	stopTime 	450
scalar RSUExampleScenario.node[37].veinsmobility 	minSpeed 	0
scalar RSUExampleScenario.node[37].veinsmobility 	maxSpeed 	13.999959229359
scalar RSUExampleScenario.node[37].veinsmobility 	totalDistance 	1866.2671007475
scalar RSUExampleScenario.node[37].veinsmobility 	totalCO2Emission 	605.38304073996
scalar RSUExampleScenario.node[38].appl 	meanClusterNodes 	9.75
scalar RSUExampleScenario.node[38].appl 	meanClusterHeadUtility 	8.839354979936
scalar RSUExampleScenario.node[38].appl 	NumberofCH 	0.10810810810811
scalar RSUExampleScenario.node[38].appl 	NumberofON 	0.37837837837838
scalar RSUExampleScenario.node[38].appl 	NumberofFN 	0.51351351351351
scalar RSUExampleScenario.node[38].veinsmobility 	startTime 	91.6
scalar RSUExampleScenario.node[38].veinsmobility 	totalTime 	358.4
scalar RSUExampleScenario.node[38].veinsmobility 	stopTime 	450
scalar RSUExampleScenario.node[38].veinsmobility 	minSpeed 	0
scalar RSUExampleScenario.node[38].veinsmobility 	maxSpeed 	13.999793599653
scalar RSUExampleScenario.node[38].veinsmobility 	totalDistance 	1832.8725061257
scalar RSUExampleScenario.node[38].veinsmobility 	totalCO2Emission 	600.5511334013
scalar RSUExampleScenario.node[39].appl 	meanClusterNodes 	0
scalar RSUExampleScenario.node[39].appl 	meanClusterHeadUtility 	0
scalar RSUExampleScenario.node[39].appl 	NumberofCH 	0
scalar RSUExampleScenario.node[39].appl 	NumberofON 	0.72972972972973
scalar RSUExampleScenario.node[39].appl 	NumberofFN 	0.27027027027027
scalar RSUExampleScenario.node[39].veinsmobility 	startTime 	94
scalar RSUExampleScenario.node[39].veinsmobility 	totalTime 	356
scalar RSUExampleScenario.node[39].veinsmobility 	stopTime 	450
scalar RSUExampleScenario.node[39].veinsmobility 	minSpeed 	0
scalar RSUExampleScenario.node[39].veinsmobility 	maxSpeed 	13.9999401121
scalar RSUExampleScenario.node[39].veinsmobility 	totalDistance 	1798.4940580304
scalar RSUExampleScenario.node[39].veinsmobility 	totalCO2Emission 	593.50558105721
scalar RSUExampleScenario.node[4].appl 	meanClusterNodes 	5.5
scalar RSUExampleScenario.node[4].appl 	meanClusterHeadUtility 	19.105596905167
scalar RSUExampleScenario.node[4].appl 	NumberofCH 	0.054054054054054
scalar RSUExampleScenario.node[4].appl 	NumberofON 	0.48648648648649
scalar RSUExampleScenario.node[4].appl 	NumberofFN 	0.45945945945946
scalar RSUExampleScenario.node[4].veinsmobility 	startTime 	9.7
scalar RSUExampleScenario.node[4].veinsmobility 	totalTime 	440.3
scalar RSUExampleScenario.node[4].veinsmobility 	stopTime 	450
scalar RSUExampleScenario.node[4].veinsmobility 	minSpeed 	0
scalar RSUExampleScenario.node[4].veinsmobility 	maxSpeed 	13.999971885735
scalar RSUExampleScenario.node[4].veinsmobility 	totalDistance 	2950.6524443197
scalar RSUExampleScenario.node[4].veinsmobility 	totalCO2Emission 	799.01636592548
scalar RSUExampleScenario.node[40].appl 	meanClusterNodes 	4.5
scalar RSUExampleScenario.node[40].appl 	meanClusterHeadUtility 	18.536171041143
scalar RSUExampleScenario.node[40].appl 	NumberofCH 	0.054054054054054
scalar RSUExampleScenario.node[40].appl 	NumberofON 	0.18918918918919
scalar RSUExampleScenario.node[40].appl 	NumberofFN 	0.75675675675676
scalar RSUExampleScenario.node[40].veinsmobility 	startTime 	96.5
scalar RSUExampleScenario.node[40].veinsmobility 	totalTime 	353.5
scalar RSUExampleScenario.node[40].veinsmobility 	stopTime 	450
scalar RSUExampleScenario.node[40].veinsmobility 	minSpeed 	0
scalar RSUExampleScenario.node[40].veinsmobility 	maxSpeed 	13.999976634115
scalar RSUExampleScenario.node[40].veinsmobility 	totalDistance 	1765.1158579973
scalar RSUExampleScenario.node[40].veinsmobility 	totalCO2Emission 	587.48011171246
scalar RSUExampleScenario.node[41].appl 	meanClusterNodes 	2
scalar RSUExampleScenario.node[41].appl 	meanClusterHeadUtility 	15.312826547268
scalar RSUExampleScenario.node[41].appl 	NumberofCH 	0.054054054054054
scalar RSUExampleScenario.node[41].appl 	NumberofON 	0.37837837837838
scalar RSUExampleScenario.node[41].appl 	NumberofFN 	0.56756756756757
scalar RSUExampleScenario.node[41].veinsmobility 	startTime 	98.9
scalar RSUExampleScenario.node[41].veinsmobility 	totalTime 	351.1
scalar RSUExampleScenario.node[41].veinsmobility 	stopTime 	450
scalar RSUExampleScenario.node[41].veinsmobility 	minSpeed 	0
scalar RSUExampleScenario.node[41].veinsmobility 	maxSpeed 	13.999910131935
scalar RSUExampleScenario.node[41].veinsmobility 	totalDistance 	1731.1331377413
scalar RSUExampleScenario.node[41].veinsmobility 	totalCO2Emission 	579.17794919389
scalar RSUExampleScenario.node[42].appl 	meanClusterNodes 	4.5
scalar RSUExampleScenario.node[42].appl 	meanClusterHeadUtility 	9.0890095205256
scalar RSUExampleScenario.node[42].appl 	NumberofCH 	0.10810810810811
scalar RSUExampleScenario.node[42].appl 	NumberofON 	0.54054054054054
scalar RSUExampleScenario.node[42].appl 	NumberofFN 	0.35135135135135
scalar RSUExampleScenario.node[42].veinsmobility 	startTime 	101.3
scalar RSUExampleScenario.node[42].veinsmobility 	totalTime 	348.7
scalar RSUExampleScenario.node[42].veinsmobility 	stopTime 	450
scalar RSUExampleScenario.node[42].veinsmobility 	minSpeed 	0
scalar RSUExampleScenario.node[42].veinsmobility 	maxSpeed 	13.999991879282
scalar RSUExampleScenario.node[42].veinsmobility 	totalDistance 	1696.6641919635
scalar RSUExampleScenario.node[42].veinsmobility 	totalCO2Emission 	575.60020406843
scalar RSUExampleScenario.node[43].appl 	meanClusterNodes 	5.5
scalar RSUExampleScenario.node[43].appl 	meanClusterHeadUtility 	19.212914592251
scalar RSUExampleScenario.node[43].appl 	NumberofCH 	0.054054054054054
scalar RSUExampleScenario.node[43].appl 	NumberofON 	0.67567567567568
scalar RSUExampleScenario.node[43].appl 	NumberofFN 	0.27027027027027
scalar RSUExampleScenario.node[43].veinsmobility 	startTime 	103.7
scalar RSUExampleScenario.node[43].veinsmobility 	totalTime 	346.3
scalar RSUExampleScenario.node[43].veinsmobility 	stopTime 	450
scalar RSUExampleScenario.node[43].veinsmobility 	minSpeed 	0
scalar RSUExampleScenario.node[43].veinsmobility 	maxSpeed 	13.999807636945
scalar RSUExampleScenario.node[43].veinsmobility 	totalDistance 	1660.955698188
scalar RSUExampleScenario.node[43].veinsmobility 	totalCO2Emission 	569.16121978128
scalar RSUExampleScenario.node[44].appl 	meanClusterNodes 	0
scalar RSUExampleScenario.node[44].appl 	meanClusterHeadUtility 	0
scalar RSUExampleScenario.node[44].appl 	NumberofCH 	0
scalar RSUExampleScenario.node[44].appl 	NumberofON 	0.72972972972973
scalar RSUExampleScenario.node[44].appl 	NumberofFN 	0.27027027027027
scalar RSUExampleScenario.node[44].veinsmobility 	startTime 	106.1
scalar RSUExampleScenario.node[44].veinsmobility 	totalTime 	343.9
scalar RSUExampleScenario.node[44].veinsmobility 	stopTime 	450
scalar RSUExampleScenario.node[44].veinsmobility 	minSpeed 	0
scalar RSUExampleScenario.node[44].veinsmobility 	maxSpeed 	13.999979299575
scalar RSUExampleScenario.node[44].veinsmobility 	totalDistance 	1628.0542241916
scalar RSUExampleScenario.node[44].veinsmobility 	totalCO2Emission 	564.65922540577
scalar RSUExampleScenario.node[45].appl 	meanClusterNodes 	0
scalar RSUExampleScenario.node[45].appl 	meanClusterHeadUtility 	0
scalar RSUExampleScenario.node[45].appl 	NumberofCH 	0
scalar RSUExampleScenario.node[45].appl 	NumberofON 	0.35135135135135
scalar RSUExampleScenario.node[45].appl 	NumberofFN 	0.64864864864865
scalar RSUExampleScenario.node[45].veinsmobility 	startTime 	108.5
scalar RSUExampleScenario.node[45].veinsmobility 	totalTime 	341.5
scalar RSUExampleScenario.node[45].veinsmobility 	stopTime 	450
scalar RSUExampleScenario.node[45].veinsmobility 	minSpeed 	0
scalar RSUExampleScenario.node[45].veinsmobility 	maxSpeed 	13.999703704619
scalar RSUExampleScenario.node[45].veinsmobility 	totalDistance 	1595.0790329494
scalar RSUExampleScenario.node[45].veinsmobility 	totalCO2Emission 	556.25069039107
scalar RSUExampleScenario.node[46].appl 	meanClusterNodes 	9.25
scalar RSUExampleScenario.node[46].appl 	meanClusterHeadUtility 	8.8586438282086
scalar RSUExampleScenario.node[46].appl 	NumberofCH 	0.10810810810811
scalar RSUExampleScenario.node[46].appl 	NumberofON 	0.27027027027027
scalar RSUExampleScenario.node[46].appl 	NumberofFN 	0.62162162162162
scalar RSUExampleScenario.node[46].veinsmobility 	startTime 	110.9
scalar RSUExampleScenario.node[46].veinsmobility 	totalTime 	339.1
scalar RSUExampleScenario.node[46].veinsmobility 	stopTime 	450
scalar RSUExampleScenario.node[46].veinsmobility 	minSpeed 	0
scalar RSUExampleScenario.node[46].veinsmobility 	maxSpeed 	13.999720788808
scalar RSUExampleScenario.node[46].veinsmobility 	totalDistance 	1562.3750514755
scalar RSUExampleScenario.node[46].veinsmobility 	totalCO2Emission 	554.7220672019
scalar RSUExampleScenario.node[47].appl 	meanClusterNodes 	6.5
scalar RSUExampleScenario.node[47].appl 	meanClusterHeadUtility 	17.886356596415
scalar RSUExampleScenario.node[47].appl 	NumberofCH 	0.054054054054054
scalar RSUExampleScenario.node[47].appl 	NumberofON 	0.59459459459459
scalar RSUExampleScenario.node[47].appl 	NumberofFN 	0.35135135135135
scalar RSUExampleScenario.node[47].veinsmobility 	startTime 	113.3
scalar RSUExampleScenario.node[47].veinsmobility 	totalTime 	336.7
scalar RSUExampleScenario.node[47].veinsmobility 	stopTime 	450
scalar RSUExampleScenario.node[47].veinsmobility 	minSpeed 	0
scalar RSUExampleScenario.node[47].veinsmobility 	maxSpeed 	13.999902654835
scalar RSUExampleScenario.node[47].veinsmobility 	totalDistance 	1526.002571285
scalar RSUExampleScenario.node[47].veinsmobility 	totalCO2Emission 	547.99585624899
scalar RSUExampleScenario.node[48].appl 	meanClusterNodes 	5.5
scalar RSUExampleScenario.node[48].appl 	meanClusterHeadUtility 	17.160117951081
scalar RSUExampleScenario.node[48].appl 	NumberofCH 	0.054054054054054
scalar RSUExampleScenario.node[48].appl 	NumberofON 	0.62162162162162
scalar RSUExampleScenario.node[48].appl 	NumberofFN 	0.32432432432432
scalar RSUExampleScenario.node[48].veinsmobility 	startTime 	115.7
scalar RSUExampleScenario.node[48].veinsmobility 	totalTime 	334.3
scalar RSUExampleScenario.node[48].veinsmobility 	stopTime 	450
scalar RSUExampleScenario.node[48].veinsmobility 	minSpeed 	0
scalar RSUExampleScenario.node[48].veinsmobility 	maxSpeed 	13.999940229147
scalar RSUExampleScenario.node[48].veinsmobility 	totalDistance 	1495.6975866139
scalar RSUExampleScenario.node[48].veinsmobility 	totalCO2Emission 	541.57628514525
scalar RSUExampleScenario.node[49].appl 	meanClusterNodes 	2.5
scalar RSUExampleScenario.node[49].appl 	meanClusterHeadUtility 	16.80017086846
scalar RSUExampleScenario.node[49].appl 	NumberofCH 	0.054054054054054
scalar RSUExampleScenario.node[49].appl 	NumberofON 	0.59459459459459
scalar RSUExampleScenario.node[49].appl 	NumberofFN 	0.35135135135135
scalar RSUExampleScenario.node[49].veinsmobility 	startTime 	118.1
scalar RSUExampleScenario.node[49].veinsmobility 	totalTime 	331.9
scalar RSUExampleScenario.node[49].veinsmobility 	stopTime 	450
scalar RSUExampleScenario.node[49].veinsmobility 	minSpeed 	0
scalar RSUExampleScenario.node[49].veinsmobility 	maxSpeed 	13.999964165583
scalar RSUExampleScenario.node[49].veinsmobility 	totalDistance 	1461.8538327485
scalar RSUExampleScenario.node[49].veinsmobility 	totalCO2Emission 	536.46906355965
scalar RSUExampleScenario.node[5].appl 	meanClusterNodes 	3.5
scalar RSUExampleScenario.node[5].appl 	meanClusterHeadUtility 	9.3075915488841
scalar RSUExampleScenario.node[5].appl 	NumberofCH 	0.10810810810811
scalar RSUExampleScenario.node[5].appl 	NumberofON 	0.48648648648649
scalar RSUExampleScenario.node[5].appl 	NumberofFN 	0.40540540540541
scalar RSUExampleScenario.node[5].veinsmobility 	startTime 	12.1
scalar RSUExampleScenario.node[5].veinsmobility 	totalTime 	437.9
scalar RSUExampleScenario.node[5].veinsmobility 	stopTime 	450
scalar RSUExampleScenario.node[5].veinsmobility 	minSpeed 	0
scalar RSUExampleScenario.node[5].veinsmobility 	maxSpeed 	13.9999050849
scalar RSUExampleScenario.node[5].veinsmobility 	totalDistance 	2914.6053952038
scalar RSUExampleScenario.node[5].veinsmobility 	totalCO2Emission 	781.73970243514
scalar RSUExampleScenario.node[50].appl 	meanClusterNodes 	8.5
scalar RSUExampleScenario.node[50].appl 	meanClusterHeadUtility 	17.248877408993
scalar RSUExampleScenario.node[50].appl 	NumberofCH 	0.054054054054054
scalar RSUExampleScenario.node[50].appl 	NumberofON 	0.10810810810811
scalar RSUExampleScenario.node[50].appl 	NumberofFN 	0.83783783783784
scalar RSUExampleScenario.node[50].veinsmobility 	startTime 	120.6
scalar RSUExampleScenario.node[50].veinsmobility 	totalTime 	329.4
scalar RSUExampleScenario.node[50].veinsmobility 	stopTime 	450
scalar RSUExampleScenario.node[50].veinsmobility 	minSpeed 	0
scalar RSUExampleScenario.node[50].veinsmobility 	maxSpeed 	13.999991293808
scalar RSUExampleScenario.node[50].veinsmobility 	totalDistance 	1428.6351406429
scalar RSUExampleScenario.node[50].veinsmobility 	totalCO2Emission 	530.38312398389
scalar RSUExampleScenario.node[51].appl 	meanClusterNodes 	0
scalar RSUExampleScenario.node[51].appl 	meanClusterHeadUtility 	0
scalar RSUExampleScenario.node[51].appl 	NumberofCH 	0
scalar RSUExampleScenario.node[51].appl 	NumberofON 	0.27027027027027
scalar RSUExampleScenario.node[51].appl 	NumberofFN 	0.72972972972973
scalar RSUExampleScenario.node[51].veinsmobility 	startTime 	123
scalar RSUExampleScenario.node[51].veinsmobility 	totalTime 	327
scalar RSUExampleScenario.node[51].veinsmobility 	stopTime 	450
scalar RSUExampleScenario.node[51].veinsmobility 	minSpeed 	0
scalar RSUExampleScenario.node[51].veinsmobility 	maxSpeed 	13.999976001182
scalar RSUExampleScenario.node[51].veinsmobility 	totalDistance 	1394.9071549202
scalar RSUExampleScenario.node[51].veinsmobility 	totalCO2Emission 	524.18169551502
scalar RSUExampleScenario.node[52].appl 	meanClusterNodes 	6.5
scalar RSUExampleScenario.node[52].appl 	meanClusterHeadUtility 	17.668160415952
scalar RSUExampleScenario.node[52].appl 	NumberofCH 	0.054054054054054
scalar RSUExampleScenario.node[52].appl 	NumberofON 	0.37837837837838
scalar RSUExampleScenario.node[52].appl 	NumberofFN 	0.56756756756757
scalar RSUExampleScenario.node[52].veinsmobility 	startTime 	125.4
scalar RSUExampleScenario.node[52].veinsmobility 	totalTime 	324.6
scalar RSUExampleScenario.node[52].veinsmobility 	stopTime 	450
scalar RSUExampleScenario.node[52].veinsmobility 	minSpeed 	0
scalar RSUExampleScenario.node[52].veinsmobility 	maxSpeed 	13.999996936517
scalar RSUExampleScenario.node[52].veinsmobility 	totalDistance 	1359.8720926207
scalar RSUExampleScenario.node[52].veinsmobility 	totalCO2Emission 	517.96587134217
scalar RSUExampleScenario.node[53].appl 	meanClusterNodes 	3
scalar RSUExampleScenario.node[53].appl 	meanClusterHeadUtility 	16.251532160097
scalar RSUExampleScenario.node[53].appl 	NumberofCH 	0.054054054054054
scalar RSUExampleScenario.node[53].appl 	NumberofON 	0.64864864864865
scalar RSUExampleScenario.node[53].appl 	NumberofFN 	0.2972972972973
scalar RSUExampleScenario.node[53].veinsmobility 	startTime 	127.8
scalar RSUExampleScenario.node[53].veinsmobility 	totalTime 	322.2
scalar RSUExampleScenario.node[53].veinsmobility 	stopTime 	450
scalar RSUExampleScenario.node[53].veinsmobility 	minSpeed 	0
scalar RSUExampleScenario.node[53].veinsmobility 	maxSpeed 	13.999999561054
scalar RSUExampleScenario.node[53].veinsmobility 	totalDistance 	1325.948878444
scalar RSUExampleScenario.node[53].veinsmobility 	totalCO2Emission 	512.09273983813
scalar RSUExampleScenario.node[54].appl 	meanClusterNodes 	4.25
scalar RSUExampleScenario.node[54].appl 	meanClusterHeadUtility 	9.1643787426532
scalar RSUExampleScenario.node[54].appl 	NumberofCH 	0.10810810810811
scalar RSUExampleScenario.node[54].appl 	NumberofON 	0.56756756756757
scalar RSUExampleScenario.node[54].appl 	NumberofFN 	0.32432432432432
scalar RSUExampleScenario.node[54].veinsmobility 	startTime 	130.2
scalar RSUExampleScenario.node[54].veinsmobility 	totalTime 	319.8
scalar RSUExampleScenario.node[54].veinsmobility 	stopTime 	450
scalar RSUExampleScenario.node[54].veinsmobility 	minSpeed 	0
scalar RSUExampleScenario.node[54].veinsmobility 	maxSpeed 	13.999790771988
scalar RSUExampleScenario.node[54].veinsmobility 	totalDistance 	1292.4709453243
scalar RSUExampleScenario.node[54].veinsmobility 	totalCO2Emission 	508.0873747262
scalar RSUExampleScenario.node[55].appl 	meanClusterNodes 	4.5
scalar RSUExampleScenario.node[55].appl 	meanClusterHeadUtility 	17.46109919184
scalar RSUExampleScenario.node[55].appl 	NumberofCH 	0.054054054054054
scalar RSUExampleScenario.node[55].appl 	NumberofON 	0.48648648648649
scalar RSUExampleScenario.node[55].appl 	NumberofFN 	0.45945945945946
scalar RSUExampleScenario.node[55].veinsmobility 	startTime 	132.6
scalar RSUExampleScenario.node[55].veinsmobility 	totalTime 	317.4
scalar RSUExampleScenario.node[55].veinsmobility 	stopTime 	450
scalar RSUExampleScenario.node[55].veinsmobility 	minSpeed 	0
scalar RSUExampleScenario.node[55].veinsmobility 	maxSpeed 	13.999945528163
scalar RSUExampleScenario.node[55].veinsmobility 	totalDistance 	1258.1234266447
scalar RSUExampleScenario.node[55].veinsmobility 	totalCO2Emission 	501.70449842841
scalar RSUExampleScenario.node[56].appl 	meanClusterNodes 	0
scalar RSUExampleScenario.node[56].appl 	meanClusterHeadUtility 	0
scalar RSUExampleScenario.node[56].appl 	NumberofCH 	0
scalar RSUExampleScenario.node[56].appl 	NumberofON 	0.64864864864865
scalar RSUExampleScenario.node[56].appl 	NumberofFN 	0.35135135135135
scalar RSUExampleScenario.node[56].veinsmobility 	startTime 	135
scalar RSUExampleScenario.node[56].veinsmobility 	totalTime 	315
scalar RSUExampleScenario.node[56].veinsmobility 	stopTime 	450
scalar RSUExampleScenario.node[56].veinsmobility 	minSpeed 	0
scalar RSUExampleScenario.node[56].veinsmobility 	maxSpeed 	13.999777241533
scalar RSUExampleScenario.node[56].veinsmobility 	totalDistance 	1223.7410215936
scalar RSUExampleScenario.node[56].veinsmobility 	totalCO2Emission 	495.74022480938
scalar RSUExampleScenario.node[57].appl 	meanClusterNodes 	0
scalar RSUExampleScenario.node[57].appl 	meanClusterHeadUtility 	0
scalar RSUExampleScenario.node[57].appl 	NumberofCH 	0
scalar RSUExampleScenario.node[57].appl 	NumberofON 	0.64864864864865
scalar RSUExampleScenario.node[57].appl 	NumberofFN 	0.35135135135135
scalar RSUExampleScenario.node[57].veinsmobility 	startTime 	137.4
scalar RSUExampleScenario.node[57].veinsmobility 	totalTime 	312.6
scalar RSUExampleScenario.node[57].veinsmobility 	stopTime 	450
scalar RSUExampleScenario.node[57].veinsmobility 	minSpeed 	0
scalar RSUExampleScenario.node[57].veinsmobility 	maxSpeed 	13.999279499373
scalar RSUExampleScenario.node[57].veinsmobility 	totalDistance 	1191.9158679076
scalar RSUExampleScenario.node[57].veinsmobility 	totalCO2Emission 	490.99538456217
scalar RSUExampleScenario.node[58].appl 	meanClusterNodes 	0
scalar RSUExampleScenario.node[58].appl 	meanClusterHeadUtility 	0
scalar RSUExampleScenario.node[58].appl 	NumberofCH 	0
scalar RSUExampleScenario.node[58].appl 	NumberofON 	0.64864864864865
scalar RSUExampleScenario.node[58].appl 	NumberofFN 	0.35135135135135
scalar RSUExampleScenario.node[58].veinsmobility 	startTime 	139.8
scalar RSUExampleScenario.node[58].veinsmobility 	totalTime 	310.2
scalar RSUExampleScenario.node[58].veinsmobility 	stopTime 	450
scalar RSUExampleScenario.node[58].veinsmobility 	minSpeed 	0
scalar RSUExampleScenario.node[58].veinsmobility 	maxSpeed 	13.999694114451
scalar RSUExampleScenario.node[58].veinsmobility 	totalDistance 	1157.8734616858
scalar RSUExampleScenario.node[58].veinsmobility 	totalCO2Emission 	486.20680254028
scalar RSUExampleScenario.node[59].appl 	meanClusterNodes 	5.6666666666667
scalar RSUExampleScenario.node[59].appl 	meanClusterHeadUtility 	12.210756375012
scalar RSUExampleScenario.node[59].appl 	NumberofCH 	0.081081081081081
scalar RSUExampleScenario.node[59].appl 	NumberofON 	0.59459459459459
scalar RSUExampleScenario.node[59].appl 	NumberofFN 	0.32432432432432
scalar RSUExampleScenario.node[59].veinsmobility 	startTime 	142.2
scalar RSUExampleScenario.node[59].veinsmobility 	totalTime 	307.8
scalar RSUExampleScenario.node[59].veinsmobility 	stopTime 	450
scalar RSUExampleScenario.node[59].veinsmobility 	minSpeed 	0
scalar RSUExampleScenario.node[59].veinsmobility 	maxSpeed 	13.999972342297
scalar RSUExampleScenario.node[59].veinsmobility 	totalDistance 	1124.3651744316
scalar RSUExampleScenario.node[59].veinsmobility 	totalCO2Emission 	479.28531362526
scalar RSUExampleScenario.node[6].appl 	meanClusterNodes 	0
scalar RSUExampleScenario.node[6].appl 	meanClusterHeadUtility 	0
scalar RSUExampleScenario.node[6].appl 	NumberofCH 	0
scalar RSUExampleScenario.node[6].appl 	NumberofON 	0.43243243243243
scalar RSUExampleScenario.node[6].appl 	NumberofFN 	0.56756756756757
scalar RSUExampleScenario.node[6].veinsmobility 	startTime 	14.5
scalar RSUExampleScenario.node[6].veinsmobility 	totalTime 	435.5
scalar RSUExampleScenario.node[6].veinsmobility 	stopTime 	450
scalar RSUExampleScenario.node[6].veinsmobility 	minSpeed 	0
scalar RSUExampleScenario.node[6].veinsmobility 	maxSpeed 	13.999925119006
scalar RSUExampleScenario.node[6].veinsmobility 	totalDistance 	2906.3618485046
scalar RSUExampleScenario.node[6].veinsmobility 	totalCO2Emission 	776.87603199143
scalar RSUExampleScenario.node[60].appl 	meanClusterNodes 	3
scalar RSUExampleScenario.node[60].appl 	meanClusterHeadUtility 	18.412114903376
scalar RSUExampleScenario.node[60].appl 	NumberofCH 	0.054054054054054
scalar RSUExampleScenario.node[60].appl 	NumberofON 	0.81081081081081
scalar RSUExampleScenario.node[60].appl 	NumberofFN 	0.13513513513514
scalar RSUExampleScenario.node[60].veinsmobility 	startTime 	144.7
scalar RSUExampleScenario.node[60].veinsmobility 	totalTime 	305.3
scalar RSUExampleScenario.node[60].veinsmobility 	stopTime 	450
scalar RSUExampleScenario.node[60].veinsmobility 	minSpeed 	0
scalar RSUExampleScenario.node[60].veinsmobility 	maxSpeed 	13.99975427001
scalar RSUExampleScenario.node[60].veinsmobility 	totalDistance 	1089.8352678656
scalar RSUExampleScenario.node[60].veinsmobility 	totalCO2Emission 	473.37125300915
scalar RSUExampleScenario.node[61].appl 	meanClusterNodes 	7.5
scalar RSUExampleScenario.node[61].appl 	meanClusterHeadUtility 	16.794259832945
scalar RSUExampleScenario.node[61].appl 	NumberofCH 	0.054054054054054
scalar RSUExampleScenario.node[61].appl 	NumberofON 	0.51351351351351
scalar RSUExampleScenario.node[61].appl 	NumberofFN 	0.43243243243243
scalar RSUExampleScenario.node[61].veinsmobility 	startTime 	147.1
scalar RSUExampleScenario.node[61].veinsmobility 	totalTime 	302.9
scalar RSUExampleScenario.node[61].veinsmobility 	stopTime 	450
scalar RSUExampleScenario.node[61].veinsmobility 	minSpeed 	0
scalar RSUExampleScenario.node[61].veinsmobility 	maxSpeed 	13.999883395014
scalar RSUExampleScenario.node[61].veinsmobility 	totalDistance 	1057.143521166
scalar RSUExampleScenario.node[61].veinsmobility 	totalCO2Emission 	466.33924940433
scalar RSUExampleScenario.node[62].appl 	meanClusterNodes 	7
scalar RSUExampleScenario.node[62].appl 	meanClusterHeadUtility 	8.7644154326252
scalar RSUExampleScenario.node[62].appl 	NumberofCH 	0.10810810810811
scalar RSUExampleScenario.node[62].appl 	NumberofON 	0.32432432432432
scalar RSUExampleScenario.node[62].appl 	NumberofFN 	0.56756756756757
scalar RSUExampleScenario.node[62].veinsmobility 	startTime 	149.5
scalar RSUExampleScenario.node[62].veinsmobility 	totalTime 	300.5
scalar RSUExampleScenario.node[62].veinsmobility 	stopTime 	450
scalar RSUExampleScenario.node[62].veinsmobility 	minSpeed 	0
scalar RSUExampleScenario.node[62].veinsmobility 	maxSpeed 	13.999342224956
scalar RSUExampleScenario.node[62].veinsmobility 	totalDistance 	1023.7547185935
scalar RSUExampleScenario.node[62].veinsmobility 	totalCO2Emission 	461.66238350444
scalar RSUExampleScenario.node[63].appl 	meanClusterNodes 	5
scalar RSUExampleScenario.node[63].appl 	meanClusterHeadUtility 	16.544138629121
scalar RSUExampleScenario.node[63].appl 	NumberofCH 	0.054054054054054
scalar RSUExampleScenario.node[63].appl 	NumberofON 	0.43243243243243
scalar RSUExampleScenario.node[63].appl 	NumberofFN 	0.51351351351351
scalar RSUExampleScenario.node[63].veinsmobility 	startTime 	151.9
scalar RSUExampleScenario.node[63].veinsmobility 	totalTime 	298.1
scalar RSUExampleScenario.node[63].veinsmobility 	stopTime 	450
scalar RSUExampleScenario.node[63].veinsmobility 	minSpeed 	0
scalar RSUExampleScenario.node[63].veinsmobility 	maxSpeed 	13.999703585969
scalar RSUExampleScenario.node[63].veinsmobility 	totalDistance 	983.73958926716
scalar RSUExampleScenario.node[63].veinsmobility 	totalCO2Emission 	449.69181080706
scalar RSUExampleScenario.node[64].appl 	meanClusterNodes 	8.75
scalar RSUExampleScenario.node[64].appl 	meanClusterHeadUtility 	8.5289625770378
scalar RSUExampleScenario.node[64].appl 	NumberofCH 	0.10810810810811
scalar RSUExampleScenario.node[64].appl 	NumberofON 	0.32432432432432
scalar RSUExampleScenario.node[64].appl 	NumberofFN 	0.56756756756757
scalar RSUExampleScenario.node[64].veinsmobility 	startTime 	154.3
scalar RSUExampleScenario.node[64].veinsmobility 	totalTime 	295.7
scalar RSUExampleScenario.node[64].veinsmobility 	stopTime 	450
scalar RSUExampleScenario.node[64].veinsmobility 	minSpeed 	0
scalar RSUExampleScenario.node[64].veinsmobility 	maxSpeed 	13.999785216239
scalar RSUExampleScenario.node[64].veinsmobility 	totalDistance 	953.89739537987
scalar RSUExampleScenario.node[64].veinsmobility 	totalCO2Emission 	435.88219741323
scalar RSUExampleScenario.node[65].appl 	meanClusterNodes 	0
scalar RSUExampleScenario.node[65].appl 	meanClusterHeadUtility 	0
scalar RSUExampleScenario.node[65].appl 	NumberofCH 	0
scalar RSUExampleScenario.node[65].appl 	NumberofON 	0.37837837837838
scalar RSUExampleScenario.node[65].appl 	NumberofFN 	0.62162162162162
scalar RSUExampleScenario.node[65].veinsmobility 	startTime 	156.7
scalar RSUExampleScenario.node[65].veinsmobility 	totalTime 	293.3
scalar RSUExampleScenario.node[65].veinsmobility 	stopTime 	450
scalar RSUExampleScenario.node[65].veinsmobility 	minSpeed 	0
scalar RSUExampleScenario.node[65].veinsmobility 	maxSpeed 	13.999364574533
scalar RSUExampleScenario.node[65].veinsmobility 	totalDistance 	940.37682710411
scalar RSUExampleScenario.node[65].veinsmobility 	totalCO2Emission 	427.81761285006
scalar RSUExampleScenario.node[66].appl 	meanClusterNodes 	0
scalar RSUExampleScenario.node[66].appl 	meanClusterHeadUtility 	0
scalar RSUExampleScenario.node[66].appl 	NumberofCH 	0
scalar RSUExampleScenario.node[66].appl 	NumberofON 	0
scalar RSUExampleScenario.node[66].appl 	NumberofFN 	1
scalar RSUExampleScenario.node[66].veinsmobility 	startTime 	159.1
scalar RSUExampleScenario.node[66].veinsmobility 	totalTime 	290.9
scalar RSUExampleScenario.node[66].veinsmobility 	stopTime 	450
scalar RSUExampleScenario.node[66].veinsmobility 	minSpeed 	0
scalar RSUExampleScenario.node[66].veinsmobility 	maxSpeed 	13.999901270922
scalar RSUExampleScenario.node[66].veinsmobility 	totalDistance 	928.23430768783
scalar RSUExampleScenario.node[66].veinsmobility 	totalCO2Emission 	423.16395183429
scalar RSUExampleScenario.node[67].appl 	meanClusterNodes 	0
scalar RSUExampleScenario.node[67].appl 	meanClusterHeadUtility 	0
scalar RSUExampleScenario.node[67].appl 	NumberofCH 	0
scalar RSUExampleScenario.node[67].appl 	NumberofON 	0.35135135135135
scalar RSUExampleScenario.node[67].appl 	NumberofFN 	0.64864864864865
scalar RSUExampleScenario.node[67].veinsmobility 	startTime 	161.5
scalar RSUExampleScenario.node[67].veinsmobility 	totalTime 	288.5
scalar RSUExampleScenario.node[67].veinsmobility 	stopTime 	450
scalar RSUExampleScenario.node[67].veinsmobility 	minSpeed 	0
scalar RSUExampleScenario.node[67].veinsmobility 	maxSpeed 	13.999876988886
scalar RSUExampleScenario.node[67].veinsmobility 	totalDistance 	913.0162707335
scalar RSUExampleScenario.node[67].veinsmobility 	totalCO2Emission 	422.51447978727
scalar RSUExampleScenario.node[68].appl 	meanClusterNodes 	0
scalar RSUExampleScenario.node[68].appl 	meanClusterHeadUtility 	0
scalar RSUExampleScenario.node[68].appl 	NumberofCH 	0
scalar RSUExampleScenario.node[68].appl 	NumberofON 	0.72972972972973
scalar RSUExampleScenario.node[68].appl 	NumberofFN 	0.27027027027027
scalar RSUExampleScenario.node[68].veinsmobility 	startTime 	163.9
scalar RSUExampleScenario.node[68].veinsmobility 	totalTime 	286.1
scalar RSUExampleScenario.node[68].veinsmobility 	stopTime 	450
scalar RSUExampleScenario.node[68].veinsmobility 	minSpeed 	0
scalar RSUExampleScenario.node[68].veinsmobility 	maxSpeed 	13.999096306912
scalar RSUExampleScenario.node[68].veinsmobility 	totalDistance 	894.09690104094
scalar RSUExampleScenario.node[68].veinsmobility 	totalCO2Emission 	418.9572447418
scalar RSUExampleScenario.node[69].appl 	meanClusterNodes 	3
scalar RSUExampleScenario.node[69].appl 	meanClusterHeadUtility 	17.431630469741
scalar RSUExampleScenario.node[69].appl 	NumberofCH 	0.054054054054054
scalar RSUExampleScenario.node[69].appl 	NumberofON 	0.7027027027027
scalar RSUExampleScenario.node[69].appl 	NumberofFN 	0.24324324324324
scalar RSUExampleScenario.node[69].veinsmobility 	startTime 	166.3
scalar RSUExampleScenario.node[69].veinsmobility 	totalTime 	283.7
scalar RSUExampleScenario.node[69].veinsmobility 	stopTime 	450
scalar RSUExampleScenario.node[69].veinsmobility 	minSpeed 	0
scalar RSUExampleScenario.node[69].veinsmobility 	maxSpeed 	13.999824539525
scalar RSUExampleScenario.node[69].veinsmobility 	totalDistance 	858.71291205061
scalar RSUExampleScenario.node[69].veinsmobility 	totalCO2Emission 	412.30923841828
scalar RSUExampleScenario.node[7].appl 	meanClusterNodes 	8
scalar RSUExampleScenario.node[7].appl 	meanClusterHeadUtility 	12.717123989948
scalar RSUExampleScenario.node[7].appl 	NumberofCH 	0.081081081081081
scalar RSUExampleScenario.node[7].appl 	NumberofON 	0.37837837837838
scalar RSUExampleScenario.node[7].appl 	NumberofFN 	0.54054054054054
scalar RSUExampleScenario.node[7].veinsmobility 	startTime 	16.9
scalar RSUExampleScenario.node[7].veinsmobility 	totalTime 	433.1
scalar RSUExampleScenario.node[7].veinsmobility 	stopTime 	450
scalar RSUExampleScenario.node[7].veinsmobility 	minSpeed 	0
scalar RSUExampleScenario.node[7].veinsmobility 	maxSpeed 	13.99997222973
scalar RSUExampleScenario.node[7].veinsmobility 	totalDistance 	2885.770724801
scalar RSUExampleScenario.node[7].veinsmobility 	totalCO2Emission 	775.75640823013
scalar RSUExampleScenario.node[70].appl 	meanClusterNodes 	7.75
scalar RSUExampleScenario.node[70].appl 	meanClusterHeadUtility 	8.7353974595046
scalar RSUExampleScenario.node[70].appl 	NumberofCH 	0.10810810810811
scalar RSUExampleScenario.node[70].appl 	NumberofON 	0.59459459459459
scalar RSUExampleScenario.node[70].appl 	NumberofFN 	0.2972972972973
scalar RSUExampleScenario.node[70].veinsmobility 	startTime 	168.8
scalar RSUExampleScenario.node[70].veinsmobility 	totalTime 	281.2
scalar RSUExampleScenario.node[70].veinsmobility 	stopTime 	450
scalar RSUExampleScenario.node[70].veinsmobility 	minSpeed 	0
scalar RSUExampleScenario.node[70].veinsmobility 	maxSpeed 	13.999776923719
scalar RSUExampleScenario.node[70].veinsmobility 	totalDistance 	827.63123314809
scalar RSUExampleScenario.node[70].veinsmobility 	totalCO2Emission 	409.06203923686
scalar RSUExampleScenario.node[71].appl 	meanClusterNodes 	8.5
scalar RSUExampleScenario.node[71].appl 	meanClusterHeadUtility 	17.059189803978
scalar RSUExampleScenario.node[71].appl 	NumberofCH 	0.054054054054054
scalar RSUExampleScenario.node[71].appl 	NumberofON 	0.40540540540541
scalar RSUExampleScenario.node[71].appl 	NumberofFN 	0.54054054054054
scalar RSUExampleScenario.node[71].veinsmobility 	startTime 	171.2
scalar RSUExampleScenario.node[71].veinsmobility 	totalTime 	278.8
scalar RSUExampleScenario.node[71].veinsmobility 	stopTime 	450
scalar RSUExampleScenario.node[71].veinsmobility 	minSpeed 	0
scalar RSUExampleScenario.node[71].veinsmobility 	maxSpeed 	13.999660569928
scalar RSUExampleScenario.node[71].veinsmobility 	totalDistance 	792.19227759162
scalar RSUExampleScenario.node[71].veinsmobility 	totalCO2Emission 	403.00447536883
scalar RSUExampleScenario.node[72].appl 	meanClusterNodes 	5
scalar RSUExampleScenario.node[72].appl 	meanClusterHeadUtility 	15.731718159201
scalar RSUExampleScenario.node[72].appl 	NumberofCH 	0.054054054054054
scalar RSUExampleScenario.node[72].appl 	NumberofON 	0.45945945945946
scalar RSUExampleScenario.node[72].appl 	NumberofFN 	0.48648648648649
scalar RSUExampleScenario.node[72].veinsmobility 	startTime 	173.6
scalar RSUExampleScenario.node[72].veinsmobility 	totalTime 	276.4
scalar RSUExampleScenario.node[72].veinsmobility 	stopTime 	450
scalar RSUExampleScenario.node[72].veinsmobility 	minSpeed 	0
scalar RSUExampleScenario.node[72].veinsmobility 	maxSpeed 	13.998995896115
scalar RSUExampleScenario.node[72].veinsmobility 	totalDistance 	759.77749833482
scalar RSUExampleScenario.node[72].veinsmobility 	totalCO2Emission 	397.63634811076
scalar RSUExampleScenario.node[73].appl 	meanClusterNodes 	9
scalar RSUExampleScenario.node[73].appl 	meanClusterHeadUtility 	17.257298806292
scalar RSUExampleScenario.node[73].appl 	NumberofCH 	0.054054054054054
scalar RSUExampleScenario.node[73].appl 	NumberofON 	0.40540540540541
scalar RSUExampleScenario.node[73].appl 	NumberofFN 	0.54054054054054
scalar RSUExampleScenario.node[73].veinsmobility 	startTime 	176
scalar RSUExampleScenario.node[73].veinsmobility 	totalTime 	274
scalar RSUExampleScenario.node[73].veinsmobility 	stopTime 	450
scalar RSUExampleScenario.node[73].veinsmobility 	minSpeed 	0
scalar RSUExampleScenario.node[73].veinsmobility 	maxSpeed 	13.999854332514
scalar RSUExampleScenario.node[73].veinsmobility 	totalDistance 	726.84707191357
scalar RSUExampleScenario.node[73].veinsmobility 	totalCO2Emission 	389.94985613562
scalar RSUExampleScenario.node[74].appl 	meanClusterNodes 	6.5
scalar RSUExampleScenario.node[74].appl 	meanClusterHeadUtility 	16.506901462439
scalar RSUExampleScenario.node[74].appl 	NumberofCH 	0.054054054054054
scalar RSUExampleScenario.node[74].appl 	NumberofON 	0.24324324324324
scalar RSUExampleScenario.node[74].appl 	NumberofFN 	0.7027027027027
scalar RSUExampleScenario.node[74].veinsmobility 	startTime 	178.4
scalar RSUExampleScenario.node[74].veinsmobility 	totalTime 	271.6
scalar RSUExampleScenario.node[74].veinsmobility 	stopTime 	450
scalar RSUExampleScenario.node[74].veinsmobility 	minSpeed 	0
scalar RSUExampleScenario.node[74].veinsmobility 	maxSpeed 	13.998529913242
scalar RSUExampleScenario.node[74].veinsmobility 	totalDistance 	693.75248654488
scalar RSUExampleScenario.node[74].veinsmobility 	totalCO2Emission 	385.38009080215
scalar RSUExampleScenario.node[75].appl 	meanClusterNodes 	4.75
scalar RSUExampleScenario.node[75].appl 	meanClusterHeadUtility 	7.7759589577306
scalar RSUExampleScenario.node[75].appl 	NumberofCH 	0.10810810810811
scalar RSUExampleScenario.node[75].appl 	NumberofON 	0.59459459459459
scalar RSUExampleScenario.node[75].appl 	NumberofFN 	0.2972972972973
scalar RSUExampleScenario.node[75].veinsmobility 	startTime 	180.8
scalar RSUExampleScenario.node[75].veinsmobility 	totalTime 	269.2
scalar RSUExampleScenario.node[75].veinsmobility 	stopTime 	450
scalar RSUExampleScenario.node[75].veinsmobility 	minSpeed 	0
scalar RSUExampleScenario.node[75].veinsmobility 	maxSpeed 	13.999658726275
scalar RSUExampleScenario.node[75].veinsmobility 	totalDistance 	658.33058740682
scalar RSUExampleScenario.node[75].veinsmobility 	totalCO2Emission 	380.22322933666
scalar RSUExampleScenario.node[76].appl 	meanClusterNodes 	4.5
scalar RSUExampleScenario.node[76].appl 	meanClusterHeadUtility 	16.849625809853
scalar RSUExampleScenario.node[76].appl 	NumberofCH 	0.054054054054054
scalar RSUExampleScenario.node[76].appl 	NumberofON 	0.72972972972973
scalar RSUExampleScenario.node[76].appl 	NumberofFN 	0.21621621621622
scalar RSUExampleScenario.node[76].veinsmobility 	startTime 	183.2
scalar RSUExampleScenario.node[76].veinsmobility 	totalTime 	266.8
scalar RSUExampleScenario.node[76].veinsmobility 	stopTime 	450
scalar RSUExampleScenario.node[76].veinsmobility 	minSpeed 	0
scalar RSUExampleScenario.node[76].veinsmobility 	maxSpeed 	13.999917600984
scalar RSUExampleScenario.node[76].veinsmobility 	totalDistance 	626.40179703547
scalar RSUExampleScenario.node[76].veinsmobility 	totalCO2Emission 	372.28997260195
scalar RSUExampleScenario.node[77].appl 	meanClusterNodes 	7
scalar RSUExampleScenario.node[77].appl 	meanClusterHeadUtility 	9.4688012808712
scalar RSUExampleScenario.node[77].appl 	NumberofCH 	0.10810810810811
scalar RSUExampleScenario.node[77].appl 	NumberofON 	0.48648648648649
scalar RSUExampleScenario.node[77].appl 	NumberofFN 	0.40540540540541
scalar RSUExampleScenario.node[77].veinsmobility 	startTime 	185.6
scalar RSUExampleScenario.node[77].veinsmobility 	totalTime 	264.4
scalar RSUExampleScenario.node[77].veinsmobility 	stopTime 	450
scalar RSUExampleScenario.node[77].veinsmobility 	minSpeed 	0
scalar RSUExampleScenario.node[77].veinsmobility 	maxSpeed 	13.999299431476
scalar RSUExampleScenario.node[77].veinsmobility 	totalDistance 	593.21756290393
scalar RSUExampleScenario.node[77].veinsmobility 	totalCO2Emission 	367.31843011421
scalar RSUExampleScenario.node[78].appl 	meanClusterNodes 	1.5
scalar RSUExampleScenario.node[78].appl 	meanClusterHeadUtility 	20.59141141732
scalar RSUExampleScenario.node[78].appl 	NumberofCH 	0.054054054054054
scalar RSUExampleScenario.node[78].appl 	NumberofON 	0.54054054054054
scalar RSUExampleScenario.node[78].appl 	NumberofFN 	0.40540540540541
scalar RSUExampleScenario.node[78].veinsmobility 	startTime 	188
scalar RSUExampleScenario.node[78].veinsmobility 	totalTime 	262
scalar RSUExampleScenario.node[78].veinsmobility 	stopTime 	450
scalar RSUExampleScenario.node[78].veinsmobility 	minSpeed 	0
scalar RSUExampleScenario.node[78].veinsmobility 	maxSpeed 	13.999113756465
scalar RSUExampleScenario.node[78].veinsmobility 	totalDistance 	559.42024698392
scalar RSUExampleScenario.node[78].veinsmobility 	totalCO2Emission 	362.14038752673
scalar RSUExampleScenario.node[79].appl 	meanClusterNodes 	3.5
scalar RSUExampleScenario.node[79].appl 	meanClusterHeadUtility 	17.947303426204
scalar RSUExampleScenario.node[79].appl 	NumberofCH 	0.054054054054054
scalar RSUExampleScenario.node[79].appl 	NumberofON 	0.56756756756757
scalar RSUExampleScenario.node[79].appl 	NumberofFN 	0.37837837837838
scalar RSUExampleScenario.node[79].veinsmobility 	startTime 	190.4
scalar RSUExampleScenario.node[79].veinsmobility 	totalTime 	259.6
scalar RSUExampleScenario.node[79].veinsmobility 	stopTime 	450
scalar RSUExampleScenario.node[79].veinsmobility 	minSpeed 	0
scalar RSUExampleScenario.node[79].veinsmobility 	maxSpeed 	13.997952048823
scalar RSUExampleScenario.node[79].veinsmobility 	totalDistance 	525.59384031805
scalar RSUExampleScenario.node[79].veinsmobility 	totalCO2Emission 	355.77892544183
scalar RSUExampleScenario.node[8].appl 	meanClusterNodes 	10
scalar RSUExampleScenario.node[8].appl 	meanClusterHeadUtility 	18.074558252273
scalar RSUExampleScenario.node[8].appl 	NumberofCH 	0.054054054054054
scalar RSUExampleScenario.node[8].appl 	NumberofON 	0.2972972972973
scalar RSUExampleScenario.node[8].appl 	NumberofFN 	0.64864864864865
scalar RSUExampleScenario.node[8].veinsmobility 	startTime 	19.3
scalar RSUExampleScenario.node[8].veinsmobility 	totalTime 	430.7
scalar RSUExampleScenario.node[8].veinsmobility 	stopTime 	450
scalar RSUExampleScenario.node[8].veinsmobility 	minSpeed 	0
scalar RSUExampleScenario.node[8].veinsmobility 	maxSpeed 	13.999949670064
scalar RSUExampleScenario.node[8].veinsmobility 	totalDistance 	2864.2595007197
scalar RSUExampleScenario.node[8].veinsmobility 	totalCO2Emission 	771.9691097696
scalar RSUExampleScenario.node[80].appl 	meanClusterNodes 	7.75
scalar RSUExampleScenario.node[80].appl 	meanClusterHeadUtility 	8.3717774271191
scalar RSUExampleScenario.node[80].appl 	NumberofCH 	0.10810810810811
scalar RSUExampleScenario.node[80].appl 	NumberofON 	0.18918918918919
scalar RSUExampleScenario.node[80].appl 	NumberofFN 	0.7027027027027
scalar RSUExampleScenario.node[80].veinsmobility 	startTime 	192.9
scalar RSUExampleScenario.node[80].veinsmobility 	totalTime 	257.1
scalar RSUExampleScenario.node[80].veinsmobility 	stopTime 	450
scalar RSUExampleScenario.node[80].veinsmobility 	minSpeed 	0
scalar RSUExampleScenario.node[80].veinsmobility 	maxSpeed 	13.999400556386
scalar RSUExampleScenario.node[80].veinsmobility 	totalDistance 	492.53053220556
scalar RSUExampleScenario.node[80].veinsmobility 	totalCO2Emission 	352.26816632306
scalar RSUExampleScenario.node[81].appl 	meanClusterNodes 	0
scalar RSUExampleScenario.node[81].appl 	meanClusterHeadUtility 	0
scalar RSUExampleScenario.node[81].appl 	NumberofCH 	0.10810810810811
scalar RSUExampleScenario.node[81].appl 	NumberofON 	0
scalar RSUExampleScenario.node[81].appl 	NumberofFN 	0.89189189189189
scalar RSUExampleScenario.node[81].veinsmobility 	startTime 	195.3
scalar RSUExampleScenario.node[81].veinsmobility 	totalTime 	254.7
scalar RSUExampleScenario.node[81].veinsmobility 	stopTime 	450
scalar RSUExampleScenario.node[81].veinsmobility 	minSpeed 	0
scalar RSUExampleScenario.node[81].veinsmobility 	maxSpeed 	13.996804322931
scalar RSUExampleScenario.node[81].veinsmobility 	totalDistance 	456.32069022504
scalar RSUExampleScenario.node[81].veinsmobility 	totalCO2Emission 	345.19687964266
scalar RSUExampleScenario.node[82].appl 	meanClusterNodes 	10.5
scalar RSUExampleScenario.node[82].appl 	meanClusterHeadUtility 	17.462810673121
scalar RSUExampleScenario.node[82].appl 	NumberofCH 	0.054054054054054
scalar RSUExampleScenario.node[82].appl 	NumberofON 	0.27027027027027
scalar RSUExampleScenario.node[82].appl 	NumberofFN 	0.67567567567568
scalar RSUExampleScenario.node[82].veinsmobility 	startTime 	197.7
scalar RSUExampleScenario.node[82].veinsmobility 	totalTime 	252.3
scalar RSUExampleScenario.node[82].veinsmobility 	stopTime 	450
scalar RSUExampleScenario.node[82].veinsmobility 	minSpeed 	0
scalar RSUExampleScenario.node[82].veinsmobility 	maxSpeed 	13.999087852882
scalar RSUExampleScenario.node[82].veinsmobility 	totalDistance 	424.65259538937
scalar RSUExampleScenario.node[82].veinsmobility 	totalCO2Emission 	340.49835394715
scalar RSUExampleScenario.node[83].appl 	meanClusterNodes 	7
scalar RSUExampleScenario.node[83].appl 	meanClusterHeadUtility 	17.41171436314
scalar RSUExampleScenario.node[83].appl 	NumberofCH 	0.054054054054054
scalar RSUExampleScenario.node[83].appl 	NumberofON 	0.48648648648649
scalar RSUExampleScenario.node[83].appl 	NumberofFN 	0.45945945945946
scalar RSUExampleScenario.node[83].veinsmobility 	startTime 	200.1
scalar RSUExampleScenario.node[83].veinsmobility 	totalTime 	249.9
scalar RSUExampleScenario.node[83].veinsmobility 	stopTime 	450
scalar RSUExampleScenario.node[83].veinsmobility 	minSpeed 	0
scalar RSUExampleScenario.node[83].veinsmobility 	maxSpeed 	13.998779197994
scalar RSUExampleScenario.node[83].veinsmobility 	totalDistance 	391.4274576995
scalar RSUExampleScenario.node[83].veinsmobility 	totalCO2Emission 	335.13771771823
scalar RSUExampleScenario.node[84].appl 	meanClusterNodes 	0
scalar RSUExampleScenario.node[84].appl 	meanClusterHeadUtility 	0
scalar RSUExampleScenario.node[84].appl 	NumberofCH 	0
scalar RSUExampleScenario.node[84].appl 	NumberofON 	0.43243243243243
scalar RSUExampleScenario.node[84].appl 	NumberofFN 	0.56756756756757
scalar RSUExampleScenario.node[84].veinsmobility 	startTime 	202.5
scalar RSUExampleScenario.node[84].veinsmobility 	totalTime 	247.5
scalar RSUExampleScenario.node[84].veinsmobility 	stopTime 	450
scalar RSUExampleScenario.node[84].veinsmobility 	minSpeed 	0
scalar RSUExampleScenario.node[84].veinsmobility 	maxSpeed 	13.999659286656
scalar RSUExampleScenario.node[84].veinsmobility 	totalDistance 	357.53814874352
scalar RSUExampleScenario.node[84].veinsmobility 	totalCO2Emission 	328.42327372485
scalar RSUExampleScenario.node[85].appl 	meanClusterNodes 	6
scalar RSUExampleScenario.node[85].appl 	meanClusterHeadUtility 	16.200870800791
scalar RSUExampleScenario.node[85].appl 	NumberofCH 	0.054054054054054
scalar RSUExampleScenario.node[85].appl 	NumberofON 	0.72972972972973
scalar RSUExampleScenario.node[85].appl 	NumberofFN 	0.21621621621622
scalar RSUExampleScenario.node[85].veinsmobility 	startTime 	204.9
scalar RSUExampleScenario.node[85].veinsmobility 	totalTime 	245.1
scalar RSUExampleScenario.node[85].veinsmobility 	stopTime 	450
scalar RSUExampleScenario.node[85].veinsmobility 	minSpeed 	0
scalar RSUExampleScenario.node[85].veinsmobility 	maxSpeed 	13.995012326874
scalar RSUExampleScenario.node[85].veinsmobility 	totalDistance 	322.11408205798
scalar RSUExampleScenario.node[85].veinsmobility 	totalCO2Emission 	322.0666361378
scalar RSUExampleScenario.node[86].appl 	meanClusterNodes 	7
scalar RSUExampleScenario.node[86].appl 	meanClusterHeadUtility 	18.526462797731
scalar RSUExampleScenario.node[86].appl 	NumberofCH 	0.054054054054054
scalar RSUExampleScenario.node[86].appl 	NumberofON 	0.27027027027027
scalar RSUExampleScenario.node[86].appl 	NumberofFN 	0.67567567567568
scalar RSUExampleScenario.node[86].veinsmobility 	startTime 	207.3
scalar RSUExampleScenario.node[86].veinsmobility 	totalTime 	242.7
scalar RSUExampleScenario.node[86].veinsmobility 	stopTime 	450
scalar RSUExampleScenario.node[86].veinsmobility 	minSpeed 	0
scalar RSUExampleScenario.node[86].veinsmobility 	maxSpeed 	13.949765035741
scalar RSUExampleScenario.node[86].veinsmobility 	totalDistance 	290.7506508036
scalar RSUExampleScenario.node[86].veinsmobility 	totalCO2Emission 	317.23330352395
scalar RSUExampleScenario.node[87].appl 	meanClusterNodes 	7.25
scalar RSUExampleScenario.node[87].appl 	meanClusterHeadUtility 	9.1289159103237
scalar RSUExampleScenario.node[87].appl 	NumberofCH 	0.10810810810811
scalar RSUExampleScenario.node[87].appl 	NumberofON 	0.40540540540541
scalar RSUExampleScenario.node[87].appl 	NumberofFN 	0.48648648648649
scalar RSUExampleScenario.node[87].veinsmobility 	startTime 	209.7
scalar RSUExampleScenario.node[87].veinsmobility 	totalTime 	240.3
scalar RSUExampleScenario.node[87].veinsmobility 	stopTime 	450
scalar RSUExampleScenario.node[87].veinsmobility 	minSpeed 	0
scalar RSUExampleScenario.node[87].veinsmobility 	maxSpeed 	13.775575031309
scalar RSUExampleScenario.node[87].veinsmobility 	totalDistance 	250.42267474259
scalar RSUExampleScenario.node[87].veinsmobility 	totalCO2Emission 	298.44002041556
scalar RSUExampleScenario.node[88].appl 	meanClusterNodes 	9.5
scalar RSUExampleScenario.node[88].appl 	meanClusterHeadUtility 	18.516716110369
scalar RSUExampleScenario.node[88].appl 	NumberofCH 	0.054054054054054
scalar RSUExampleScenario.node[88].appl 	NumberofON 	0.37837837837838
scalar RSUExampleScenario.node[88].appl 	NumberofFN 	0.56756756756757
scalar RSUExampleScenario.node[88].veinsmobility 	startTime 	212.1
scalar RSUExampleScenario.node[88].veinsmobility 	totalTime 	237.9
scalar RSUExampleScenario.node[88].veinsmobility 	stopTime 	450
scalar RSUExampleScenario.node[88].veinsmobility 	minSpeed 	0
scalar RSUExampleScenario.node[88].veinsmobility 	maxSpeed 	13.8724244346
scalar RSUExampleScenario.node[88].veinsmobility 	totalDistance 	226.660008507
scalar RSUExampleScenario.node[88].veinsmobility 	totalCO2Emission 	287.8453934605
scalar RSUExampleScenario.node[89].appl 	meanClusterNodes 	1.5
scalar RSUExampleScenario.node[89].appl 	meanClusterHeadUtility 	15.671213602172
scalar RSUExampleScenario.node[89].appl 	NumberofCH 	0.054054054054054
scalar RSUExampleScenario.node[89].appl 	NumberofON 	0.62162162162162
scalar RSUExampleScenario.node[89].appl 	NumberofFN 	0.32432432432432
scalar RSUExampleScenario.node[89].veinsmobility 	startTime 	214.5
scalar RSUExampleScenario.node[89].veinsmobility 	totalTime 	235.5
scalar RSUExampleScenario.node[89].veinsmobility 	stopTime 	450
scalar RSUExampleScenario.node[89].veinsmobility 	minSpeed 	0
scalar RSUExampleScenario.node[89].veinsmobility 	maxSpeed 	13.887869946402
scalar RSUExampleScenario.node[89].veinsmobility 	totalDistance 	215.75816288956
scalar RSUExampleScenario.node[89].veinsmobility 	totalCO2Emission 	282.65635519794
scalar RSUExampleScenario.node[9].appl 	meanClusterNodes 	8.75
scalar RSUExampleScenario.node[9].appl 	meanClusterHeadUtility 	9.1909038368924
scalar RSUExampleScenario.node[9].appl 	NumberofCH 	0.10810810810811
scalar RSUExampleScenario.node[9].appl 	NumberofON 	0.18918918918919
scalar RSUExampleScenario.node[9].appl 	NumberofFN 	0.7027027027027
scalar RSUExampleScenario.node[9].veinsmobility 	startTime 	21.7
scalar RSUExampleScenario.node[9].veinsmobility 	totalTime 	428.3
scalar RSUExampleScenario.node[9].veinsmobility 	stopTime 	450
scalar RSUExampleScenario.node[9].veinsmobility 	minSpeed 	0
scalar RSUExampleScenario.node[9].veinsmobility 	maxSpeed 	13.99998946538
scalar RSUExampleScenario.node[9].veinsmobility 	totalDistance 	2824.8781323943
scalar RSUExampleScenario.node[9].veinsmobility 	totalCO2Emission 	761.70151027815
scalar RSUExampleScenario.node[90].appl 	meanClusterNodes 	5
scalar RSUExampleScenario.node[90].appl 	meanClusterHeadUtility 	18.902433990199
scalar RSUExampleScenario.node[90].appl 	NumberofCH 	0.054054054054054
scalar RSUExampleScenario.node[90].appl 	NumberofON 	0.62162162162162
scalar RSUExampleScenario.node[90].appl 	NumberofFN 	0.32432432432432
scalar RSUExampleScenario.node[90].veinsmobility 	startTime 	217
scalar RSUExampleScenario.node[90].veinsmobility 	totalTime 	233
scalar RSUExampleScenario.node[90].veinsmobility 	stopTime 	450
scalar RSUExampleScenario.node[90].veinsmobility 	minSpeed 	0
scalar RSUExampleScenario.node[90].veinsmobility 	maxSpeed 	13.767454601119
scalar RSUExampleScenario.node[90].veinsmobility 	totalDistance 	202.4238132775
scalar RSUExampleScenario.node[90].veinsmobility 	totalCO2Emission 	280.10315204582
scalar RSUExampleScenario.node[91].appl 	meanClusterNodes 	3.5
scalar RSUExampleScenario.node[91].appl 	meanClusterHeadUtility 	19.659263743193
scalar RSUExampleScenario.node[91].appl 	NumberofCH 	0.054054054054054
scalar RSUExampleScenario.node[91].appl 	NumberofON 	0.37837837837838
scalar RSUExampleScenario.node[91].appl 	NumberofFN 	0.56756756756757
scalar RSUExampleScenario.node[91].veinsmobility 	startTime 	219.4
scalar RSUExampleScenario.node[91].veinsmobility 	totalTime 	230.6
scalar RSUExampleScenario.node[91].veinsmobility 	stopTime 	450
scalar RSUExampleScenario.node[91].veinsmobility 	minSpeed 	0
scalar RSUExampleScenario.node[91].veinsmobility 	maxSpeed 	13.804634610119
scalar RSUExampleScenario.node[91].veinsmobility 	totalDistance 	185.52534565837
scalar RSUExampleScenario.node[91].veinsmobility 	totalCO2Emission 	278.15600183848
scalar RSUExampleScenario.node[92].appl 	meanClusterNodes 	7.5
scalar RSUExampleScenario.node[92].appl 	meanClusterHeadUtility 	19.759381886294
scalar RSUExampleScenario.node[92].appl 	NumberofCH 	0.054054054054054
scalar RSUExampleScenario.node[92].appl 	NumberofON 	0.40540540540541
scalar RSUExampleScenario.node[92].appl 	NumberofFN 	0.54054054054054
scalar RSUExampleScenario.node[92].veinsmobility 	startTime 	221.8
scalar RSUExampleScenario.node[92].veinsmobility 	totalTime 	228.2
scalar RSUExampleScenario.node[92].veinsmobility 	stopTime 	450
scalar RSUExampleScenario.node[92].veinsmobility 	minSpeed 	0
scalar RSUExampleScenario.node[92].veinsmobility 	maxSpeed 	13.816335989411
scalar RSUExampleScenario.node[92].veinsmobility 	totalDistance 	149.40999411269
scalar RSUExampleScenario.node[92].veinsmobility 	totalCO2Emission 	262.8998477657
scalar RSUExampleScenario.node[93].appl 	meanClusterNodes 	4.5
scalar RSUExampleScenario.node[93].appl 	meanClusterHeadUtility 	17.429581841517
scalar RSUExampleScenario.node[93].appl 	NumberofCH 	0.054054054054054
scalar RSUExampleScenario.node[93].appl 	NumberofON 	0.45945945945946
scalar RSUExampleScenario.node[93].appl 	NumberofFN 	0.48648648648649
scalar RSUExampleScenario.node[93].veinsmobility 	startTime 	224.2
scalar RSUExampleScenario.node[93].veinsmobility 	totalTime 	225.8
scalar RSUExampleScenario.node[93].veinsmobility 	stopTime 	450
scalar RSUExampleScenario.node[93].veinsmobility 	minSpeed 	0
scalar RSUExampleScenario.node[93].veinsmobility 	maxSpeed 	13.874592189696
scalar RSUExampleScenario.node[93].veinsmobility 	totalDistance 	123.66069764965
scalar RSUExampleScenario.node[93].veinsmobility 	totalCO2Emission 	251.54150083464
scalar RSUExampleScenario.node[94].appl 	meanClusterNodes 	8.5
scalar RSUExampleScenario.node[94].appl 	meanClusterHeadUtility 	19.487879584306
scalar RSUExampleScenario.node[94].appl 	NumberofCH 	0.054054054054054
scalar RSUExampleScenario.node[94].appl 	NumberofON 	0.21621621621622
scalar RSUExampleScenario.node[94].appl 	NumberofFN 	0.72972972972973
scalar RSUExampleScenario.node[94].veinsmobility 	startTime 	226.6
scalar RSUExampleScenario.node[94].veinsmobility 	totalTime 	223.4
scalar RSUExampleScenario.node[94].veinsmobility 	stopTime 	450
scalar RSUExampleScenario.node[94].veinsmobility 	minSpeed 	0
scalar RSUExampleScenario.node[94].veinsmobility 	maxSpeed 	13.867629818665
scalar RSUExampleScenario.node[94].veinsmobility 	totalDistance 	112.22734785968
scalar RSUExampleScenario.node[94].veinsmobility 	totalCO2Emission 	245.93002273378
scalar RSUExampleScenario.node[95].appl 	meanClusterNodes 	4
scalar RSUExampleScenario.node[95].appl 	meanClusterHeadUtility 	18.290283904561
scalar RSUExampleScenario.node[95].appl 	NumberofCH 	0.054054054054054
scalar RSUExampleScenario.node[95].appl 	NumberofON 	0.35135135135135
scalar RSUExampleScenario.node[95].appl 	NumberofFN 	0.59459459459459
scalar RSUExampleScenario.node[95].veinsmobility 	startTime 	229
scalar RSUExampleScenario.node[95].veinsmobility 	totalTime 	221
scalar RSUExampleScenario.node[95].veinsmobility 	stopTime 	450
scalar RSUExampleScenario.node[95].veinsmobility 	minSpeed 	0
scalar RSUExampleScenario.node[95].veinsmobility 	maxSpeed 	13.803366036518
scalar RSUExampleScenario.node[95].veinsmobility 	totalDistance 	99.330657304737
scalar RSUExampleScenario.node[95].veinsmobility 	totalCO2Emission 	242.03424044099
scalar RSUExampleScenario.node[96].appl 	meanClusterNodes 	6.5
scalar RSUExampleScenario.node[96].appl 	meanClusterHeadUtility 	17.128911182784
scalar RSUExampleScenario.node[96].appl 	NumberofCH 	0.054054054054054
scalar RSUExampleScenario.node[96].appl 	NumberofON 	0.48648648648649
scalar RSUExampleScenario.node[96].appl 	NumberofFN 	0.45945945945946
scalar RSUExampleScenario.node[96].veinsmobility 	startTime 	231.4
scalar RSUExampleScenario.node[96].veinsmobility 	totalTime 	218.6
scalar RSUExampleScenario.node[96].veinsmobility 	stopTime 	450
scalar RSUExampleScenario.node[96].veinsmobility 	minSpeed 	0
scalar RSUExampleScenario.node[96].veinsmobility 	maxSpeed 	13.81977015991
scalar RSUExampleScenario.node[96].veinsmobility 	totalDistance 	82.963786560867
scalar RSUExampleScenario.node[96].veinsmobility 	totalCO2Emission 	239.91999722839
scalar RSUExampleScenario.node[97].appl 	meanClusterNodes 	6
scalar RSUExampleScenario.node[97].appl 	meanClusterHeadUtility 	17.979675919844
scalar RSUExampleScenario.node[97].appl 	NumberofCH 	0.054054054054054
scalar RSUExampleScenario.node[97].appl 	NumberofON 	0.51351351351351
scalar RSUExampleScenario.node[97].appl 	NumberofFN 	0.43243243243243
scalar RSUExampleScenario.node[97].veinsmobility 	startTime 	233.8
scalar RSUExampleScenario.node[97].veinsmobility 	totalTime 	216.2
scalar RSUExampleScenario.node[97].veinsmobility 	stopTime 	450
scalar RSUExampleScenario.node[97].veinsmobility 	minSpeed 	0
scalar RSUExampleScenario.node[97].veinsmobility 	maxSpeed 	12.171679845486
scalar RSUExampleScenario.node[97].veinsmobility 	totalDistance 	55.213119107551
scalar RSUExampleScenario.node[97].veinsmobility 	totalCO2Emission 	231.40822665111
scalar RSUExampleScenario.node[98].appl 	meanClusterNodes 	12
scalar RSUExampleScenario.node[98].appl 	meanClusterHeadUtility 	17.702609039673
scalar RSUExampleScenario.node[98].appl 	NumberofCH 	0.054054054054054
scalar RSUExampleScenario.node[98].appl 	NumberofON 	0.35135135135135
scalar RSUExampleScenario.node[98].appl 	NumberofFN 	0.59459459459459
scalar RSUExampleScenario.node[98].veinsmobility 	startTime 	236.2
scalar RSUExampleScenario.node[98].veinsmobility 	totalTime 	213.8
scalar RSUExampleScenario.node[98].veinsmobility 	stopTime 	450
scalar RSUExampleScenario.node[98].veinsmobility 	minSpeed 	0
scalar RSUExampleScenario.node[98].veinsmobility 	maxSpeed 	7.706963117559
scalar RSUExampleScenario.node[98].veinsmobility 	totalDistance 	21.584303532469
scalar RSUExampleScenario.node[98].veinsmobility 	totalCO2Emission 	216.5567524508
scalar RSUExampleScenario.node[99].appl 	meanClusterNodes 	5.5
scalar RSUExampleScenario.node[99].appl 	meanClusterHeadUtility 	17.677966914956
scalar RSUExampleScenario.node[99].appl 	NumberofCH 	0.054054054054054
scalar RSUExampleScenario.node[99].appl 	NumberofON 	0.56756756756757
scalar RSUExampleScenario.node[99].appl 	NumberofFN 	0.37837837837838
scalar RSUExampleScenario.node[99].veinsmobility 	startTime 	238.6
scalar RSUExampleScenario.node[99].veinsmobility 	totalTime 	211.4
scalar RSUExampleScenario.node[99].veinsmobility 	stopTime 	450
scalar RSUExampleScenario.node[99].veinsmobility 	minSpeed 	0
scalar RSUExampleScenario.node[99].veinsmobility 	maxSpeed 	3.0515691099801
scalar RSUExampleScenario.node[99].veinsmobility 	totalDistance 	3.2970587038063
scalar RSUExampleScenario.node[99].veinsmobility 	totalCO2Emission 	207.07764406497
