version 2
run statistic4-1167-20150324-19:19:43-13828
attr c 18
attr configname statistic4
attr datetime 20150324-19:19:43
attr experiment statistic4
attr inifile omnetpp.ini
attr iterationvars "$p=1/8, $c=18"
attr iterationvars2 "$p=1/8, $c=18, $repetition=67"
attr measurement "$p=1/8, $c=18"
attr network RSUExampleScenario
attr p 1/8
attr processid 13828
attr repetition 67
attr replication #67
attr resultdir results
attr runnumber 1167
attr seedset 1167

scalar . 	c 	18
scalar RSUExampleScenario.rsu[0].appl 	NumberofCH 	9
scalar RSUExampleScenario.rsu[0].appl 	NumberofON 	91
scalar RSUExampleScenario.rsu[0].appl 	NumberofFN 	0
scalar RSUExampleScenario.rsu[0].appl 	meanClusterNodes 	10.111111111111
scalar RSUExampleScenario.rsu[0].appl 	varClusterNodes 	4.817662975262
scalar RSUExampleScenario.rsu[0].appl 	sumCHutility 	339.06955605494
scalar RSUExampleScenario.rsu[0].appl 	meanCHutility 	37.674395117216
scalar RSUExampleScenario.rsu[0].appl 	varCHutility 	1.7175046063065
scalar RSUExampleScenario.rsu[0].appl 	sumDiffCHutility 	-32.268533657953
scalar RSUExampleScenario.rsu[0].appl 	meanDiffCHutility 	-3.5853926286615
scalar RSUExampleScenario.rsu[0].appl 	varDiffCHutility 	1.7618299375953
scalar RSUExampleScenario.rsu[0].appl 	expectedCHutility 	306.80102239699
scalar RSUExampleScenario.rsu[0].appl 	meanExpectedCHutility 	34.089002488554
scalar RSUExampleScenario.rsu[0].appl 	varExpectedCHutility 	0.68208936511626
scalar RSUExampleScenario.node[0].veinsmobility 	startTime 	0.1
scalar RSUExampleScenario.node[0].veinsmobility 	totalTime 	349.9
scalar RSUExampleScenario.node[0].veinsmobility 	stopTime 	350
scalar RSUExampleScenario.node[0].veinsmobility 	minSpeed 	0
scalar RSUExampleScenario.node[0].veinsmobility 	maxSpeed 	13.999750254781
scalar RSUExampleScenario.node[0].veinsmobility 	totalDistance 	3136.1240231789
scalar RSUExampleScenario.node[0].veinsmobility 	totalCO2Emission 	742.00347068207
scalar RSUExampleScenario.node[1].veinsmobility 	startTime 	2.5
scalar RSUExampleScenario.node[1].veinsmobility 	totalTime 	347.5
scalar RSUExampleScenario.node[1].veinsmobility 	stopTime 	350
scalar RSUExampleScenario.node[1].veinsmobility 	minSpeed 	0
scalar RSUExampleScenario.node[1].veinsmobility 	maxSpeed 	13.999963753272
scalar RSUExampleScenario.node[1].veinsmobility 	totalDistance 	3083.9849228046
scalar RSUExampleScenario.node[1].veinsmobility 	totalCO2Emission 	733.071430065
scalar RSUExampleScenario.node[10].veinsmobility 	startTime 	24.2
scalar RSUExampleScenario.node[10].veinsmobility 	totalTime 	325.8
scalar RSUExampleScenario.node[10].veinsmobility 	stopTime 	350
scalar RSUExampleScenario.node[10].veinsmobility 	minSpeed 	0
scalar RSUExampleScenario.node[10].veinsmobility 	maxSpeed 	13.999955074019
scalar RSUExampleScenario.node[10].veinsmobility 	totalDistance 	2794.0581832554
scalar RSUExampleScenario.node[10].veinsmobility 	totalCO2Emission 	659.99386274039
scalar RSUExampleScenario.node[11].veinsmobility 	startTime 	26.6
scalar RSUExampleScenario.node[11].veinsmobility 	totalTime 	323.4
scalar RSUExampleScenario.node[11].veinsmobility 	stopTime 	350
scalar RSUExampleScenario.node[11].veinsmobility 	minSpeed 	0
scalar RSUExampleScenario.node[11].veinsmobility 	maxSpeed 	13.999791206818
scalar RSUExampleScenario.node[11].veinsmobility 	totalDistance 	2756.6030064149
scalar RSUExampleScenario.node[11].veinsmobility 	totalCO2Emission 	656.35777371049
scalar RSUExampleScenario.node[12].veinsmobility 	startTime 	29
scalar RSUExampleScenario.node[12].veinsmobility 	totalTime 	321
scalar RSUExampleScenario.node[12].veinsmobility 	stopTime 	350
scalar RSUExampleScenario.node[12].veinsmobility 	minSpeed 	0
scalar RSUExampleScenario.node[12].veinsmobility 	maxSpeed 	13.999927115815
scalar RSUExampleScenario.node[12].veinsmobility 	totalDistance 	2723.7777714749
scalar RSUExampleScenario.node[12].veinsmobility 	totalCO2Emission 	646.8353332036
scalar RSUExampleScenario.node[13].veinsmobility 	startTime 	31.4
scalar RSUExampleScenario.node[13].veinsmobility 	totalTime 	318.6
scalar RSUExampleScenario.node[13].veinsmobility 	stopTime 	350
scalar RSUExampleScenario.node[13].veinsmobility 	minSpeed 	0
scalar RSUExampleScenario.node[13].veinsmobility 	maxSpeed 	13.99988300371
scalar RSUExampleScenario.node[13].veinsmobility 	totalDistance 	2679.1003260425
scalar RSUExampleScenario.node[13].veinsmobility 	totalCO2Emission 	641.51659395362
scalar RSUExampleScenario.node[14].veinsmobility 	startTime 	33.8
scalar RSUExampleScenario.node[14].veinsmobility 	totalTime 	316.2
scalar RSUExampleScenario.node[14].veinsmobility 	stopTime 	350
scalar RSUExampleScenario.node[14].veinsmobility 	minSpeed 	0
scalar RSUExampleScenario.node[14].veinsmobility 	maxSpeed 	13.999918433263
scalar RSUExampleScenario.node[14].veinsmobility 	totalDistance 	2651.7472045195
scalar RSUExampleScenario.node[14].veinsmobility 	totalCO2Emission 	637.37605929145
scalar RSUExampleScenario.node[15].veinsmobility 	startTime 	36.2
scalar RSUExampleScenario.node[15].veinsmobility 	totalTime 	313.8
scalar RSUExampleScenario.node[15].veinsmobility 	stopTime 	350
scalar RSUExampleScenario.node[15].veinsmobility 	minSpeed 	0
scalar RSUExampleScenario.node[15].veinsmobility 	maxSpeed 	13.999989730618
scalar RSUExampleScenario.node[15].veinsmobility 	totalDistance 	2614.5330720179
scalar RSUExampleScenario.node[15].veinsmobility 	totalCO2Emission 	630.21023741859
scalar RSUExampleScenario.node[16].veinsmobility 	startTime 	38.6
scalar RSUExampleScenario.node[16].veinsmobility 	totalTime 	311.4
scalar RSUExampleScenario.node[16].veinsmobility 	stopTime 	350
scalar RSUExampleScenario.node[16].veinsmobility 	minSpeed 	0
scalar RSUExampleScenario.node[16].veinsmobility 	maxSpeed 	13.999856110516
scalar RSUExampleScenario.node[16].veinsmobility 	totalDistance 	2583.047579599
scalar RSUExampleScenario.node[16].veinsmobility 	totalCO2Emission 	625.86837742623
scalar RSUExampleScenario.node[17].veinsmobility 	startTime 	41
scalar RSUExampleScenario.node[17].veinsmobility 	totalTime 	309
scalar RSUExampleScenario.node[17].veinsmobility 	stopTime 	350
scalar RSUExampleScenario.node[17].veinsmobility 	minSpeed 	0
scalar RSUExampleScenario.node[17].veinsmobility 	maxSpeed 	13.999852704187
scalar RSUExampleScenario.node[17].veinsmobility 	totalDistance 	2540.9857834649
scalar RSUExampleScenario.node[17].veinsmobility 	totalCO2Emission 	618.78744675306
scalar RSUExampleScenario.node[18].veinsmobility 	startTime 	43.4
scalar RSUExampleScenario.node[18].veinsmobility 	totalTime 	306.6
scalar RSUExampleScenario.node[18].veinsmobility 	stopTime 	350
scalar RSUExampleScenario.node[18].veinsmobility 	minSpeed 	0
scalar RSUExampleScenario.node[18].veinsmobility 	maxSpeed 	13.999788700447
scalar RSUExampleScenario.node[18].veinsmobility 	totalDistance 	2510.5339398529
scalar RSUExampleScenario.node[18].veinsmobility 	totalCO2Emission 	616.36270242349
scalar RSUExampleScenario.node[19].veinsmobility 	startTime 	45.8
scalar RSUExampleScenario.node[19].veinsmobility 	totalTime 	304.2
scalar RSUExampleScenario.node[19].veinsmobility 	stopTime 	350
scalar RSUExampleScenario.node[19].veinsmobility 	minSpeed 	0
scalar RSUExampleScenario.node[19].veinsmobility 	maxSpeed 	13.999971863488
scalar RSUExampleScenario.node[19].veinsmobility 	totalDistance 	2470.5407301164
scalar RSUExampleScenario.node[19].veinsmobility 	totalCO2Emission 	610.06076847749
scalar RSUExampleScenario.node[2].veinsmobility 	startTime 	4.9
scalar RSUExampleScenario.node[2].veinsmobility 	totalTime 	345.1
scalar RSUExampleScenario.node[2].veinsmobility 	stopTime 	350
scalar RSUExampleScenario.node[2].veinsmobility 	minSpeed 	0
scalar RSUExampleScenario.node[2].veinsmobility 	maxSpeed 	13.999989531576
scalar RSUExampleScenario.node[2].veinsmobility 	totalDistance 	3042.101806913
scalar RSUExampleScenario.node[2].veinsmobility 	totalCO2Emission 	724.95194358296
scalar RSUExampleScenario.node[20].veinsmobility 	startTime 	48.3
scalar RSUExampleScenario.node[20].veinsmobility 	totalTime 	301.7
scalar RSUExampleScenario.node[20].veinsmobility 	stopTime 	350
scalar RSUExampleScenario.node[20].veinsmobility 	minSpeed 	0
scalar RSUExampleScenario.node[20].veinsmobility 	maxSpeed 	13.999797552531
scalar RSUExampleScenario.node[20].veinsmobility 	totalDistance 	2441.5266552286
scalar RSUExampleScenario.node[20].veinsmobility 	totalCO2Emission 	601.10535132212
scalar RSUExampleScenario.node[21].veinsmobility 	startTime 	50.7
scalar RSUExampleScenario.node[21].veinsmobility 	totalTime 	299.3
scalar RSUExampleScenario.node[21].veinsmobility 	stopTime 	350
scalar RSUExampleScenario.node[21].veinsmobility 	minSpeed 	0
scalar RSUExampleScenario.node[21].veinsmobility 	maxSpeed 	13.999878449952
scalar RSUExampleScenario.node[21].veinsmobility 	totalDistance 	2401.7292525057
scalar RSUExampleScenario.node[21].veinsmobility 	totalCO2Emission 	598.03077529651
scalar RSUExampleScenario.node[22].veinsmobility 	startTime 	53.1
scalar RSUExampleScenario.node[22].veinsmobility 	totalTime 	296.9
scalar RSUExampleScenario.node[22].veinsmobility 	stopTime 	350
scalar RSUExampleScenario.node[22].veinsmobility 	minSpeed 	0
scalar RSUExampleScenario.node[22].veinsmobility 	maxSpeed 	13.999932282348
scalar RSUExampleScenario.node[22].veinsmobility 	totalDistance 	2374.0021833872
scalar RSUExampleScenario.node[22].veinsmobility 	totalCO2Emission 	590.9873920255
scalar RSUExampleScenario.node[23].veinsmobility 	startTime 	55.5
scalar RSUExampleScenario.node[23].veinsmobility 	totalTime 	294.5
scalar RSUExampleScenario.node[23].veinsmobility 	stopTime 	350
scalar RSUExampleScenario.node[23].veinsmobility 	minSpeed 	0
scalar RSUExampleScenario.node[23].veinsmobility 	maxSpeed 	13.999990443066
scalar RSUExampleScenario.node[23].veinsmobility 	totalDistance 	2335.9236231617
scalar RSUExampleScenario.node[23].veinsmobility 	totalCO2Emission 	589.12139513063
scalar RSUExampleScenario.node[24].veinsmobility 	startTime 	57.9
scalar RSUExampleScenario.node[24].veinsmobility 	totalTime 	292.1
scalar RSUExampleScenario.node[24].veinsmobility 	stopTime 	350
scalar RSUExampleScenario.node[24].veinsmobility 	minSpeed 	0
scalar RSUExampleScenario.node[24].veinsmobility 	maxSpeed 	13.999823305258
scalar RSUExampleScenario.node[24].veinsmobility 	totalDistance 	2305.6807011759
scalar RSUExampleScenario.node[24].veinsmobility 	totalCO2Emission 	580.22108984037
scalar RSUExampleScenario.node[25].veinsmobility 	startTime 	60.3
scalar RSUExampleScenario.node[25].veinsmobility 	totalTime 	289.7
scalar RSUExampleScenario.node[25].veinsmobility 	stopTime 	350
scalar RSUExampleScenario.node[25].veinsmobility 	minSpeed 	0
scalar RSUExampleScenario.node[25].veinsmobility 	maxSpeed 	13.999898860955
scalar RSUExampleScenario.node[25].veinsmobility 	totalDistance 	2266.2526380796
scalar RSUExampleScenario.node[25].veinsmobility 	totalCO2Emission 	576.36405608295
scalar RSUExampleScenario.node[26].veinsmobility 	startTime 	62.7
scalar RSUExampleScenario.node[26].veinsmobility 	totalTime 	287.3
scalar RSUExampleScenario.node[26].veinsmobility 	stopTime 	350
scalar RSUExampleScenario.node[26].veinsmobility 	minSpeed 	0
scalar RSUExampleScenario.node[26].veinsmobility 	maxSpeed 	13.999961263882
scalar RSUExampleScenario.node[26].veinsmobility 	totalDistance 	2237.9007364393
scalar RSUExampleScenario.node[26].veinsmobility 	totalCO2Emission 	570.27946255794
scalar RSUExampleScenario.node[27].veinsmobility 	startTime 	65.1
scalar RSUExampleScenario.node[27].veinsmobility 	totalTime 	284.9
scalar RSUExampleScenario.node[27].veinsmobility 	stopTime 	350
scalar RSUExampleScenario.node[27].veinsmobility 	minSpeed 	0
scalar RSUExampleScenario.node[27].veinsmobility 	maxSpeed 	13.999922392103
scalar RSUExampleScenario.node[27].veinsmobility 	totalDistance 	2200.0029099343
scalar RSUExampleScenario.node[27].veinsmobility 	totalCO2Emission 	563.78259718231
scalar RSUExampleScenario.node[28].veinsmobility 	startTime 	67.5
scalar RSUExampleScenario.node[28].veinsmobility 	totalTime 	282.5
scalar RSUExampleScenario.node[28].veinsmobility 	stopTime 	350
scalar RSUExampleScenario.node[28].veinsmobility 	minSpeed 	0
scalar RSUExampleScenario.node[28].veinsmobility 	maxSpeed 	13.999967097703
scalar RSUExampleScenario.node[28].veinsmobility 	totalDistance 	2170.8684662197
scalar RSUExampleScenario.node[28].veinsmobility 	totalCO2Emission 	561.08968324693
scalar RSUExampleScenario.node[29].veinsmobility 	startTime 	69.9
scalar RSUExampleScenario.node[29].veinsmobility 	totalTime 	280.1
scalar RSUExampleScenario.node[29].veinsmobility 	stopTime 	350
scalar RSUExampleScenario.node[29].veinsmobility 	minSpeed 	0
scalar RSUExampleScenario.node[29].veinsmobility 	maxSpeed 	13.999948154334
scalar RSUExampleScenario.node[29].veinsmobility 	totalDistance 	2133.7555821018
scalar RSUExampleScenario.node[29].veinsmobility 	totalCO2Emission 	549.30435546646
scalar RSUExampleScenario.node[3].veinsmobility 	startTime 	7.3
scalar RSUExampleScenario.node[3].veinsmobility 	totalTime 	342.7
scalar RSUExampleScenario.node[3].veinsmobility 	stopTime 	350
scalar RSUExampleScenario.node[3].veinsmobility 	minSpeed 	0
scalar RSUExampleScenario.node[3].veinsmobility 	maxSpeed 	13.999936380209
scalar RSUExampleScenario.node[3].veinsmobility 	totalDistance 	2992.3881032944
scalar RSUExampleScenario.node[3].veinsmobility 	totalCO2Emission 	716.89106675977
scalar RSUExampleScenario.node[30].veinsmobility 	startTime 	72.4
scalar RSUExampleScenario.node[30].veinsmobility 	totalTime 	277.6
scalar RSUExampleScenario.node[30].veinsmobility 	stopTime 	350
scalar RSUExampleScenario.node[30].veinsmobility 	minSpeed 	0
scalar RSUExampleScenario.node[30].veinsmobility 	maxSpeed 	13.999968749972
scalar RSUExampleScenario.node[30].veinsmobility 	totalDistance 	2102.4646578327
scalar RSUExampleScenario.node[30].veinsmobility 	totalCO2Emission 	544.68298374451
scalar RSUExampleScenario.node[31].veinsmobility 	startTime 	74.8
scalar RSUExampleScenario.node[31].veinsmobility 	totalTime 	275.2
scalar RSUExampleScenario.node[31].veinsmobility 	stopTime 	350
scalar RSUExampleScenario.node[31].veinsmobility 	minSpeed 	0
scalar RSUExampleScenario.node[31].veinsmobility 	maxSpeed 	13.999682627358
scalar RSUExampleScenario.node[31].veinsmobility 	totalDistance 	2066.4331019028
scalar RSUExampleScenario.node[31].veinsmobility 	totalCO2Emission 	540.40296253487
scalar RSUExampleScenario.node[32].veinsmobility 	startTime 	77.2
scalar RSUExampleScenario.node[32].veinsmobility 	totalTime 	272.8
scalar RSUExampleScenario.node[32].veinsmobility 	stopTime 	350
scalar RSUExampleScenario.node[32].veinsmobility 	minSpeed 	0
scalar RSUExampleScenario.node[32].veinsmobility 	maxSpeed 	13.99998304778
scalar RSUExampleScenario.node[32].veinsmobility 	totalDistance 	2033.2107896292
scalar RSUExampleScenario.node[32].veinsmobility 	totalCO2Emission 	536.56311487725
scalar RSUExampleScenario.node[33].veinsmobility 	startTime 	79.6
scalar RSUExampleScenario.node[33].veinsmobility 	totalTime 	270.4
scalar RSUExampleScenario.node[33].veinsmobility 	stopTime 	350
scalar RSUExampleScenario.node[33].veinsmobility 	minSpeed 	0
scalar RSUExampleScenario.node[33].veinsmobility 	maxSpeed 	13.999818851748
scalar RSUExampleScenario.node[33].veinsmobility 	totalDistance 	1999.5014917358
scalar RSUExampleScenario.node[33].veinsmobility 	totalCO2Emission 	530.93455919605
scalar RSUExampleScenario.node[34].veinsmobility 	startTime 	82
scalar RSUExampleScenario.node[34].veinsmobility 	totalTime 	268
scalar RSUExampleScenario.node[34].veinsmobility 	stopTime 	350
scalar RSUExampleScenario.node[34].veinsmobility 	minSpeed 	0
scalar RSUExampleScenario.node[34].veinsmobility 	maxSpeed 	13.9999508431
scalar RSUExampleScenario.node[34].veinsmobility 	totalDistance 	1966.6499950355
scalar RSUExampleScenario.node[34].veinsmobility 	totalCO2Emission 	524.71423957749
scalar RSUExampleScenario.node[35].veinsmobility 	startTime 	84.4
scalar RSUExampleScenario.node[35].veinsmobility 	totalTime 	265.6
scalar RSUExampleScenario.node[35].veinsmobility 	stopTime 	350
scalar RSUExampleScenario.node[35].veinsmobility 	minSpeed 	0
scalar RSUExampleScenario.node[35].veinsmobility 	maxSpeed 	13.999916873765
scalar RSUExampleScenario.node[35].veinsmobility 	totalDistance 	1932.1206573659
scalar RSUExampleScenario.node[35].veinsmobility 	totalCO2Emission 	520.59087254639
scalar RSUExampleScenario.node[36].veinsmobility 	startTime 	86.8
scalar RSUExampleScenario.node[36].veinsmobility 	totalTime 	263.2
scalar RSUExampleScenario.node[36].veinsmobility 	stopTime 	350
scalar RSUExampleScenario.node[36].veinsmobility 	minSpeed 	0
scalar RSUExampleScenario.node[36].veinsmobility 	maxSpeed 	13.999440687918
scalar RSUExampleScenario.node[36].veinsmobility 	totalDistance 	1900.1878994677
scalar RSUExampleScenario.node[36].veinsmobility 	totalCO2Emission 	515.72407137076
scalar RSUExampleScenario.node[37].veinsmobility 	startTime 	89.2
scalar RSUExampleScenario.node[37].veinsmobility 	totalTime 	260.8
scalar RSUExampleScenario.node[37].veinsmobility 	stopTime 	350
scalar RSUExampleScenario.node[37].veinsmobility 	minSpeed 	0
scalar RSUExampleScenario.node[37].veinsmobility 	maxSpeed 	13.999709079305
scalar RSUExampleScenario.node[37].veinsmobility 	totalDistance 	1867.4586294559
scalar RSUExampleScenario.node[37].veinsmobility 	totalCO2Emission 	509.33273209085
scalar RSUExampleScenario.node[38].veinsmobility 	startTime 	91.6
scalar RSUExampleScenario.node[38].veinsmobility 	totalTime 	258.4
scalar RSUExampleScenario.node[38].veinsmobility 	stopTime 	350
scalar RSUExampleScenario.node[38].veinsmobility 	minSpeed 	0
scalar RSUExampleScenario.node[38].veinsmobility 	maxSpeed 	13.99987402777
scalar RSUExampleScenario.node[38].veinsmobility 	totalDistance 	1831.3573592193
scalar RSUExampleScenario.node[38].veinsmobility 	totalCO2Emission 	505.09450860416
scalar RSUExampleScenario.node[39].veinsmobility 	startTime 	94
scalar RSUExampleScenario.node[39].veinsmobility 	totalTime 	256
scalar RSUExampleScenario.node[39].veinsmobility 	stopTime 	350
scalar RSUExampleScenario.node[39].veinsmobility 	minSpeed 	0
scalar RSUExampleScenario.node[39].veinsmobility 	maxSpeed 	13.999940193975
scalar RSUExampleScenario.node[39].veinsmobility 	totalDistance 	1799.1726202931
scalar RSUExampleScenario.node[39].veinsmobility 	totalCO2Emission 	495.92383447693
scalar RSUExampleScenario.node[4].veinsmobility 	startTime 	9.7
scalar RSUExampleScenario.node[4].veinsmobility 	totalTime 	340.3
scalar RSUExampleScenario.node[4].veinsmobility 	stopTime 	350
scalar RSUExampleScenario.node[4].veinsmobility 	minSpeed 	0
scalar RSUExampleScenario.node[4].veinsmobility 	maxSpeed 	13.999983938688
scalar RSUExampleScenario.node[4].veinsmobility 	totalDistance 	2950.1680172972
scalar RSUExampleScenario.node[4].veinsmobility 	totalCO2Emission 	700.56035496053
scalar RSUExampleScenario.node[40].veinsmobility 	startTime 	96.5
scalar RSUExampleScenario.node[40].veinsmobility 	totalTime 	253.5
scalar RSUExampleScenario.node[40].veinsmobility 	stopTime 	350
scalar RSUExampleScenario.node[40].veinsmobility 	minSpeed 	0
scalar RSUExampleScenario.node[40].veinsmobility 	maxSpeed 	13.999684566022
scalar RSUExampleScenario.node[40].veinsmobility 	totalDistance 	1765.3961169021
scalar RSUExampleScenario.node[40].veinsmobility 	totalCO2Emission 	490.34519906311
scalar RSUExampleScenario.node[41].veinsmobility 	startTime 	98.9
scalar RSUExampleScenario.node[41].veinsmobility 	totalTime 	251.1
scalar RSUExampleScenario.node[41].veinsmobility 	stopTime 	350
scalar RSUExampleScenario.node[41].veinsmobility 	minSpeed 	0
scalar RSUExampleScenario.node[41].veinsmobility 	maxSpeed 	13.999982087952
scalar RSUExampleScenario.node[41].veinsmobility 	totalDistance 	1730.2380574556
scalar RSUExampleScenario.node[41].veinsmobility 	totalCO2Emission 	487.2400311359
scalar RSUExampleScenario.node[42].veinsmobility 	startTime 	101.3
scalar RSUExampleScenario.node[42].veinsmobility 	totalTime 	248.7
scalar RSUExampleScenario.node[42].veinsmobility 	stopTime 	350
scalar RSUExampleScenario.node[42].veinsmobility 	minSpeed 	0
scalar RSUExampleScenario.node[42].veinsmobility 	maxSpeed 	13.99981599554
scalar RSUExampleScenario.node[42].veinsmobility 	totalDistance 	1697.0233378909
scalar RSUExampleScenario.node[42].veinsmobility 	totalCO2Emission 	477.38600434689
scalar RSUExampleScenario.node[43].veinsmobility 	startTime 	103.7
scalar RSUExampleScenario.node[43].veinsmobility 	totalTime 	246.3
scalar RSUExampleScenario.node[43].veinsmobility 	stopTime 	350
scalar RSUExampleScenario.node[43].veinsmobility 	minSpeed 	0
scalar RSUExampleScenario.node[43].veinsmobility 	maxSpeed 	13.9993328157
scalar RSUExampleScenario.node[43].veinsmobility 	totalDistance 	1663.4030160371
scalar RSUExampleScenario.node[43].veinsmobility 	totalCO2Emission 	471.65992408122
scalar RSUExampleScenario.node[44].veinsmobility 	startTime 	106.1
scalar RSUExampleScenario.node[44].veinsmobility 	totalTime 	243.9
scalar RSUExampleScenario.node[44].veinsmobility 	stopTime 	350
scalar RSUExampleScenario.node[44].veinsmobility 	minSpeed 	0
scalar RSUExampleScenario.node[44].veinsmobility 	maxSpeed 	13.99981337857
scalar RSUExampleScenario.node[44].veinsmobility 	totalDistance 	1630.3157089656
scalar RSUExampleScenario.node[44].veinsmobility 	totalCO2Emission 	467.60810224674
scalar RSUExampleScenario.node[45].veinsmobility 	startTime 	108.5
scalar RSUExampleScenario.node[45].veinsmobility 	totalTime 	241.5
scalar RSUExampleScenario.node[45].veinsmobility 	stopTime 	350
scalar RSUExampleScenario.node[45].veinsmobility 	minSpeed 	0
scalar RSUExampleScenario.node[45].veinsmobility 	maxSpeed 	13.999778126206
scalar RSUExampleScenario.node[45].veinsmobility 	totalDistance 	1594.0291376394
scalar RSUExampleScenario.node[45].veinsmobility 	totalCO2Emission 	461.09449302443
scalar RSUExampleScenario.node[46].veinsmobility 	startTime 	110.9
scalar RSUExampleScenario.node[46].veinsmobility 	totalTime 	239.1
scalar RSUExampleScenario.node[46].veinsmobility 	stopTime 	350
scalar RSUExampleScenario.node[46].veinsmobility 	minSpeed 	0
scalar RSUExampleScenario.node[46].veinsmobility 	maxSpeed 	13.999932512809
scalar RSUExampleScenario.node[46].veinsmobility 	totalDistance 	1561.6494892795
scalar RSUExampleScenario.node[46].veinsmobility 	totalCO2Emission 	457.83234052994
scalar RSUExampleScenario.node[47].veinsmobility 	startTime 	113.3
scalar RSUExampleScenario.node[47].veinsmobility 	totalTime 	236.7
scalar RSUExampleScenario.node[47].veinsmobility 	stopTime 	350
scalar RSUExampleScenario.node[47].veinsmobility 	minSpeed 	0
scalar RSUExampleScenario.node[47].veinsmobility 	maxSpeed 	13.999614670316
scalar RSUExampleScenario.node[47].veinsmobility 	totalDistance 	1528.7598155209
scalar RSUExampleScenario.node[47].veinsmobility 	totalCO2Emission 	450.29554145576
scalar RSUExampleScenario.node[48].veinsmobility 	startTime 	115.7
scalar RSUExampleScenario.node[48].veinsmobility 	totalTime 	234.3
scalar RSUExampleScenario.node[48].veinsmobility 	stopTime 	350
scalar RSUExampleScenario.node[48].veinsmobility 	minSpeed 	0
scalar RSUExampleScenario.node[48].veinsmobility 	maxSpeed 	13.999924638018
scalar RSUExampleScenario.node[48].veinsmobility 	totalDistance 	1495.5488559329
scalar RSUExampleScenario.node[48].veinsmobility 	totalCO2Emission 	445.0054733811
scalar RSUExampleScenario.node[49].veinsmobility 	startTime 	118.1
scalar RSUExampleScenario.node[49].veinsmobility 	totalTime 	231.9
scalar RSUExampleScenario.node[49].veinsmobility 	stopTime 	350
scalar RSUExampleScenario.node[49].veinsmobility 	minSpeed 	0
scalar RSUExampleScenario.node[49].veinsmobility 	maxSpeed 	13.999928113357
scalar RSUExampleScenario.node[49].veinsmobility 	totalDistance 	1460.8969491624
scalar RSUExampleScenario.node[49].veinsmobility 	totalCO2Emission 	437.12090601978
scalar RSUExampleScenario.node[5].veinsmobility 	startTime 	12.1
scalar RSUExampleScenario.node[5].veinsmobility 	totalTime 	337.9
scalar RSUExampleScenario.node[5].veinsmobility 	stopTime 	350
scalar RSUExampleScenario.node[5].veinsmobility 	minSpeed 	0
scalar RSUExampleScenario.node[5].veinsmobility 	maxSpeed 	13.999972574967
scalar RSUExampleScenario.node[5].veinsmobility 	totalDistance 	2914.764849906
scalar RSUExampleScenario.node[5].veinsmobility 	totalCO2Emission 	684.17097825854
scalar RSUExampleScenario.node[50].veinsmobility 	startTime 	120.6
scalar RSUExampleScenario.node[50].veinsmobility 	totalTime 	229.4
scalar RSUExampleScenario.node[50].veinsmobility 	stopTime 	350
scalar RSUExampleScenario.node[50].veinsmobility 	minSpeed 	0
scalar RSUExampleScenario.node[50].veinsmobility 	maxSpeed 	13.999872974262
scalar RSUExampleScenario.node[50].veinsmobility 	totalDistance 	1427.4003520997
scalar RSUExampleScenario.node[50].veinsmobility 	totalCO2Emission 	432.66231942204
scalar RSUExampleScenario.node[51].veinsmobility 	startTime 	123
scalar RSUExampleScenario.node[51].veinsmobility 	totalTime 	227
scalar RSUExampleScenario.node[51].veinsmobility 	stopTime 	350
scalar RSUExampleScenario.node[51].veinsmobility 	minSpeed 	0
scalar RSUExampleScenario.node[51].veinsmobility 	maxSpeed 	13.99997054456
scalar RSUExampleScenario.node[51].veinsmobility 	totalDistance 	1394.3455342898
scalar RSUExampleScenario.node[51].veinsmobility 	totalCO2Emission 	428.19851127466
scalar RSUExampleScenario.node[52].veinsmobility 	startTime 	125.4
scalar RSUExampleScenario.node[52].veinsmobility 	totalTime 	224.6
scalar RSUExampleScenario.node[52].veinsmobility 	stopTime 	350
scalar RSUExampleScenario.node[52].veinsmobility 	minSpeed 	0
scalar RSUExampleScenario.node[52].veinsmobility 	maxSpeed 	13.999004461954
scalar RSUExampleScenario.node[52].veinsmobility 	totalDistance 	1360.0337367746
scalar RSUExampleScenario.node[52].veinsmobility 	totalCO2Emission 	423.11203998626
scalar RSUExampleScenario.node[53].veinsmobility 	startTime 	127.8
scalar RSUExampleScenario.node[53].veinsmobility 	totalTime 	222.2
scalar RSUExampleScenario.node[53].veinsmobility 	stopTime 	350
scalar RSUExampleScenario.node[53].veinsmobility 	minSpeed 	0
scalar RSUExampleScenario.node[53].veinsmobility 	maxSpeed 	13.999524879737
scalar RSUExampleScenario.node[53].veinsmobility 	totalDistance 	1328.7957228451
scalar RSUExampleScenario.node[53].veinsmobility 	totalCO2Emission 	417.02175180912
scalar RSUExampleScenario.node[54].veinsmobility 	startTime 	130.2
scalar RSUExampleScenario.node[54].veinsmobility 	totalTime 	219.8
scalar RSUExampleScenario.node[54].veinsmobility 	stopTime 	350
scalar RSUExampleScenario.node[54].veinsmobility 	minSpeed 	0
scalar RSUExampleScenario.node[54].veinsmobility 	maxSpeed 	13.999972883428
scalar RSUExampleScenario.node[54].veinsmobility 	totalDistance 	1293.8836764987
scalar RSUExampleScenario.node[54].veinsmobility 	totalCO2Emission 	409.3000984169
scalar RSUExampleScenario.node[55].veinsmobility 	startTime 	132.6
scalar RSUExampleScenario.node[55].veinsmobility 	totalTime 	217.4
scalar RSUExampleScenario.node[55].veinsmobility 	stopTime 	350
scalar RSUExampleScenario.node[55].veinsmobility 	minSpeed 	0
scalar RSUExampleScenario.node[55].veinsmobility 	maxSpeed 	13.999585808038
scalar RSUExampleScenario.node[55].veinsmobility 	totalDistance 	1261.1649546278
scalar RSUExampleScenario.node[55].veinsmobility 	totalCO2Emission 	405.44430177114
scalar RSUExampleScenario.node[56].veinsmobility 	startTime 	135
scalar RSUExampleScenario.node[56].veinsmobility 	totalTime 	215
scalar RSUExampleScenario.node[56].veinsmobility 	stopTime 	350
scalar RSUExampleScenario.node[56].veinsmobility 	minSpeed 	0
scalar RSUExampleScenario.node[56].veinsmobility 	maxSpeed 	13.999964542177
scalar RSUExampleScenario.node[56].veinsmobility 	totalDistance 	1228.2122392442
scalar RSUExampleScenario.node[56].veinsmobility 	totalCO2Emission 	399.51054033584
scalar RSUExampleScenario.node[57].veinsmobility 	startTime 	137.4
scalar RSUExampleScenario.node[57].veinsmobility 	totalTime 	212.6
scalar RSUExampleScenario.node[57].veinsmobility 	stopTime 	350
scalar RSUExampleScenario.node[57].veinsmobility 	minSpeed 	0
scalar RSUExampleScenario.node[57].veinsmobility 	maxSpeed 	13.999727445918
scalar RSUExampleScenario.node[57].veinsmobility 	totalDistance 	1195.0204615339
scalar RSUExampleScenario.node[57].veinsmobility 	totalCO2Emission 	393.28023250938
scalar RSUExampleScenario.node[58].veinsmobility 	startTime 	139.8
scalar RSUExampleScenario.node[58].veinsmobility 	totalTime 	210.2
scalar RSUExampleScenario.node[58].veinsmobility 	stopTime 	350
scalar RSUExampleScenario.node[58].veinsmobility 	minSpeed 	0
scalar RSUExampleScenario.node[58].veinsmobility 	maxSpeed 	13.999764320313
scalar RSUExampleScenario.node[58].veinsmobility 	totalDistance 	1160.6295123542
scalar RSUExampleScenario.node[58].veinsmobility 	totalCO2Emission 	388.83197979784
scalar RSUExampleScenario.node[59].veinsmobility 	startTime 	142.2
scalar RSUExampleScenario.node[59].veinsmobility 	totalTime 	207.8
scalar RSUExampleScenario.node[59].veinsmobility 	stopTime 	350
scalar RSUExampleScenario.node[59].veinsmobility 	minSpeed 	0
scalar RSUExampleScenario.node[59].veinsmobility 	maxSpeed 	13.999987146913
scalar RSUExampleScenario.node[59].veinsmobility 	totalDistance 	1124.8840864551
scalar RSUExampleScenario.node[59].veinsmobility 	totalCO2Emission 	384.20224446581
scalar RSUExampleScenario.node[6].veinsmobility 	startTime 	14.5
scalar RSUExampleScenario.node[6].veinsmobility 	totalTime 	335.5
scalar RSUExampleScenario.node[6].veinsmobility 	stopTime 	350
scalar RSUExampleScenario.node[6].veinsmobility 	minSpeed 	0
scalar RSUExampleScenario.node[6].veinsmobility 	maxSpeed 	13.999962124431
scalar RSUExampleScenario.node[6].veinsmobility 	totalDistance 	2906.2023286302
scalar RSUExampleScenario.node[6].veinsmobility 	totalCO2Emission 	682.34925546849
scalar RSUExampleScenario.node[60].veinsmobility 	startTime 	144.7
scalar RSUExampleScenario.node[60].veinsmobility 	totalTime 	205.3
scalar RSUExampleScenario.node[60].veinsmobility 	stopTime 	350
scalar RSUExampleScenario.node[60].veinsmobility 	minSpeed 	0
scalar RSUExampleScenario.node[60].veinsmobility 	maxSpeed 	13.99992484163
scalar RSUExampleScenario.node[60].veinsmobility 	totalDistance 	1092.0941495601
scalar RSUExampleScenario.node[60].veinsmobility 	totalCO2Emission 	375.6189162985
scalar RSUExampleScenario.node[61].veinsmobility 	startTime 	147.1
scalar RSUExampleScenario.node[61].veinsmobility 	totalTime 	202.9
scalar RSUExampleScenario.node[61].veinsmobility 	stopTime 	350
scalar RSUExampleScenario.node[61].veinsmobility 	minSpeed 	0
scalar RSUExampleScenario.node[61].veinsmobility 	maxSpeed 	13.99989715369
scalar RSUExampleScenario.node[61].veinsmobility 	totalDistance 	1058.6639816295
scalar RSUExampleScenario.node[61].veinsmobility 	totalCO2Emission 	370.8010388792
scalar RSUExampleScenario.node[62].veinsmobility 	startTime 	149.5
scalar RSUExampleScenario.node[62].veinsmobility 	totalTime 	200.5
scalar RSUExampleScenario.node[62].veinsmobility 	stopTime 	350
scalar RSUExampleScenario.node[62].veinsmobility 	minSpeed 	0
scalar RSUExampleScenario.node[62].veinsmobility 	maxSpeed 	13.999807295704
scalar RSUExampleScenario.node[62].veinsmobility 	totalDistance 	1025.2904264014
scalar RSUExampleScenario.node[62].veinsmobility 	totalCO2Emission 	365.09757837941
scalar RSUExampleScenario.node[63].veinsmobility 	startTime 	151.9
scalar RSUExampleScenario.node[63].veinsmobility 	totalTime 	198.1
scalar RSUExampleScenario.node[63].veinsmobility 	stopTime 	350
scalar RSUExampleScenario.node[63].veinsmobility 	minSpeed 	0
scalar RSUExampleScenario.node[63].veinsmobility 	maxSpeed 	13.999556312524
scalar RSUExampleScenario.node[63].veinsmobility 	totalDistance 	986.33679964053
scalar RSUExampleScenario.node[63].veinsmobility 	totalCO2Emission 	352.86112502698
scalar RSUExampleScenario.node[64].veinsmobility 	startTime 	154.3
scalar RSUExampleScenario.node[64].veinsmobility 	totalTime 	195.7
scalar RSUExampleScenario.node[64].veinsmobility 	stopTime 	350
scalar RSUExampleScenario.node[64].veinsmobility 	minSpeed 	0
scalar RSUExampleScenario.node[64].veinsmobility 	maxSpeed 	13.999904030696
scalar RSUExampleScenario.node[64].veinsmobility 	totalDistance 	954.63285521757
scalar RSUExampleScenario.node[64].veinsmobility 	totalCO2Emission 	337.47568401826
scalar RSUExampleScenario.node[65].veinsmobility 	startTime 	156.7
scalar RSUExampleScenario.node[65].veinsmobility 	totalTime 	193.3
scalar RSUExampleScenario.node[65].veinsmobility 	stopTime 	350
scalar RSUExampleScenario.node[65].veinsmobility 	minSpeed 	0
scalar RSUExampleScenario.node[65].veinsmobility 	maxSpeed 	13.999807421709
scalar RSUExampleScenario.node[65].veinsmobility 	totalDistance 	940.62372423539
scalar RSUExampleScenario.node[65].veinsmobility 	totalCO2Emission 	329.70065737859
scalar RSUExampleScenario.node[66].veinsmobility 	startTime 	159.1
scalar RSUExampleScenario.node[66].veinsmobility 	totalTime 	190.9
scalar RSUExampleScenario.node[66].veinsmobility 	stopTime 	350
scalar RSUExampleScenario.node[66].veinsmobility 	minSpeed 	0
scalar RSUExampleScenario.node[66].veinsmobility 	maxSpeed 	13.999496911364
scalar RSUExampleScenario.node[66].veinsmobility 	totalDistance 	928.2527128922
scalar RSUExampleScenario.node[66].veinsmobility 	totalCO2Emission 	326.95388061373
scalar RSUExampleScenario.node[67].veinsmobility 	startTime 	161.5
scalar RSUExampleScenario.node[67].veinsmobility 	totalTime 	188.5
scalar RSUExampleScenario.node[67].veinsmobility 	stopTime 	350
scalar RSUExampleScenario.node[67].veinsmobility 	minSpeed 	0
scalar RSUExampleScenario.node[67].veinsmobility 	maxSpeed 	13.999968567758
scalar RSUExampleScenario.node[67].veinsmobility 	totalDistance 	913.23338111871
scalar RSUExampleScenario.node[67].veinsmobility 	totalCO2Emission 	324.64223229592
scalar RSUExampleScenario.node[68].veinsmobility 	startTime 	163.9
scalar RSUExampleScenario.node[68].veinsmobility 	totalTime 	186.1
scalar RSUExampleScenario.node[68].veinsmobility 	stopTime 	350
scalar RSUExampleScenario.node[68].veinsmobility 	minSpeed 	0
scalar RSUExampleScenario.node[68].veinsmobility 	maxSpeed 	13.999896318838
scalar RSUExampleScenario.node[68].veinsmobility 	totalDistance 	893.83786566886
scalar RSUExampleScenario.node[68].veinsmobility 	totalCO2Emission 	320.59768352656
scalar RSUExampleScenario.node[69].veinsmobility 	startTime 	166.3
scalar RSUExampleScenario.node[69].veinsmobility 	totalTime 	183.7
scalar RSUExampleScenario.node[69].veinsmobility 	stopTime 	350
scalar RSUExampleScenario.node[69].veinsmobility 	minSpeed 	0
scalar RSUExampleScenario.node[69].veinsmobility 	maxSpeed 	13.999835885298
scalar RSUExampleScenario.node[69].veinsmobility 	totalDistance 	860.39349812683
scalar RSUExampleScenario.node[69].veinsmobility 	totalCO2Emission 	317.96879568731
scalar RSUExampleScenario.node[7].veinsmobility 	startTime 	16.9
scalar RSUExampleScenario.node[7].veinsmobility 	totalTime 	333.1
scalar RSUExampleScenario.node[7].veinsmobility 	stopTime 	350
scalar RSUExampleScenario.node[7].veinsmobility 	minSpeed 	0
scalar RSUExampleScenario.node[7].veinsmobility 	maxSpeed 	13.999939523449
scalar RSUExampleScenario.node[7].veinsmobility 	totalDistance 	2885.3478775381
scalar RSUExampleScenario.node[7].veinsmobility 	totalCO2Emission 	679.50386817475
scalar RSUExampleScenario.node[70].veinsmobility 	startTime 	168.8
scalar RSUExampleScenario.node[70].veinsmobility 	totalTime 	181.2
scalar RSUExampleScenario.node[70].veinsmobility 	stopTime 	350
scalar RSUExampleScenario.node[70].veinsmobility 	minSpeed 	0
scalar RSUExampleScenario.node[70].veinsmobility 	maxSpeed 	13.999250348883
scalar RSUExampleScenario.node[70].veinsmobility 	totalDistance 	825.18839766955
scalar RSUExampleScenario.node[70].veinsmobility 	totalCO2Emission 	308.11828196681
scalar RSUExampleScenario.node[71].veinsmobility 	startTime 	171.2
scalar RSUExampleScenario.node[71].veinsmobility 	totalTime 	178.8
scalar RSUExampleScenario.node[71].veinsmobility 	stopTime 	350
scalar RSUExampleScenario.node[71].veinsmobility 	minSpeed 	0
scalar RSUExampleScenario.node[71].veinsmobility 	maxSpeed 	13.999875456267
scalar RSUExampleScenario.node[71].veinsmobility 	totalDistance 	791.46182667021
scalar RSUExampleScenario.node[71].veinsmobility 	totalCO2Emission 	302.96146185582
scalar RSUExampleScenario.node[72].veinsmobility 	startTime 	173.6
scalar RSUExampleScenario.node[72].veinsmobility 	totalTime 	176.4
scalar RSUExampleScenario.node[72].veinsmobility 	stopTime 	350
scalar RSUExampleScenario.node[72].veinsmobility 	minSpeed 	0
scalar RSUExampleScenario.node[72].veinsmobility 	maxSpeed 	13.999855418711
scalar RSUExampleScenario.node[72].veinsmobility 	totalDistance 	758.79540555259
scalar RSUExampleScenario.node[72].veinsmobility 	totalCO2Emission 	299.34672275135
scalar RSUExampleScenario.node[73].veinsmobility 	startTime 	176
scalar RSUExampleScenario.node[73].veinsmobility 	totalTime 	174
scalar RSUExampleScenario.node[73].veinsmobility 	stopTime 	350
scalar RSUExampleScenario.node[73].veinsmobility 	minSpeed 	0
scalar RSUExampleScenario.node[73].veinsmobility 	maxSpeed 	13.999808875783
scalar RSUExampleScenario.node[73].veinsmobility 	totalDistance 	724.57139825362
scalar RSUExampleScenario.node[73].veinsmobility 	totalCO2Emission 	293.40984390659
scalar RSUExampleScenario.node[74].veinsmobility 	startTime 	178.4
scalar RSUExampleScenario.node[74].veinsmobility 	totalTime 	171.6
scalar RSUExampleScenario.node[74].veinsmobility 	stopTime 	350
scalar RSUExampleScenario.node[74].veinsmobility 	minSpeed 	0
scalar RSUExampleScenario.node[74].veinsmobility 	maxSpeed 	13.999702991445
scalar RSUExampleScenario.node[74].veinsmobility 	totalDistance 	692.53394590429
scalar RSUExampleScenario.node[74].veinsmobility 	totalCO2Emission 	286.73603522408
scalar RSUExampleScenario.node[75].veinsmobility 	startTime 	180.8
scalar RSUExampleScenario.node[75].veinsmobility 	totalTime 	169.2
scalar RSUExampleScenario.node[75].veinsmobility 	stopTime 	350
scalar RSUExampleScenario.node[75].veinsmobility 	minSpeed 	0
scalar RSUExampleScenario.node[75].veinsmobility 	maxSpeed 	13.999537904898
scalar RSUExampleScenario.node[75].veinsmobility 	totalDistance 	655.86402412976
scalar RSUExampleScenario.node[75].veinsmobility 	totalCO2Emission 	282.44511072292
scalar RSUExampleScenario.node[76].veinsmobility 	startTime 	183.2
scalar RSUExampleScenario.node[76].veinsmobility 	totalTime 	166.8
scalar RSUExampleScenario.node[76].veinsmobility 	stopTime 	350
scalar RSUExampleScenario.node[76].veinsmobility 	minSpeed 	0
scalar RSUExampleScenario.node[76].veinsmobility 	maxSpeed 	13.999935651508
scalar RSUExampleScenario.node[76].veinsmobility 	totalDistance 	624.26905775818
scalar RSUExampleScenario.node[76].veinsmobility 	totalCO2Emission 	276.60224242209
scalar RSUExampleScenario.node[77].veinsmobility 	startTime 	185.6
scalar RSUExampleScenario.node[77].veinsmobility 	totalTime 	164.4
scalar RSUExampleScenario.node[77].veinsmobility 	stopTime 	350
scalar RSUExampleScenario.node[77].veinsmobility 	minSpeed 	0
scalar RSUExampleScenario.node[77].veinsmobility 	maxSpeed 	13.999959726117
scalar RSUExampleScenario.node[77].veinsmobility 	totalDistance 	588.67553607348
scalar RSUExampleScenario.node[77].veinsmobility 	totalCO2Emission 	270.22612997518
scalar RSUExampleScenario.node[78].veinsmobility 	startTime 	188
scalar RSUExampleScenario.node[78].veinsmobility 	totalTime 	162
scalar RSUExampleScenario.node[78].veinsmobility 	stopTime 	350
scalar RSUExampleScenario.node[78].veinsmobility 	minSpeed 	0
scalar RSUExampleScenario.node[78].veinsmobility 	maxSpeed 	13.99976893055
scalar RSUExampleScenario.node[78].veinsmobility 	totalDistance 	556.18052493168
scalar RSUExampleScenario.node[78].veinsmobility 	totalCO2Emission 	263.74626066533
scalar RSUExampleScenario.node[79].veinsmobility 	startTime 	190.4
scalar RSUExampleScenario.node[79].veinsmobility 	totalTime 	159.6
scalar RSUExampleScenario.node[79].veinsmobility 	stopTime 	350
scalar RSUExampleScenario.node[79].veinsmobility 	minSpeed 	0
scalar RSUExampleScenario.node[79].veinsmobility 	maxSpeed 	13.999920205181
scalar RSUExampleScenario.node[79].veinsmobility 	totalDistance 	522.14833426083
scalar RSUExampleScenario.node[79].veinsmobility 	totalCO2Emission 	259.25479134286
scalar RSUExampleScenario.node[8].veinsmobility 	startTime 	19.3
scalar RSUExampleScenario.node[8].veinsmobility 	totalTime 	330.7
scalar RSUExampleScenario.node[8].veinsmobility 	stopTime 	350
scalar RSUExampleScenario.node[8].veinsmobility 	minSpeed 	0
scalar RSUExampleScenario.node[8].veinsmobility 	maxSpeed 	13.999982969295
scalar RSUExampleScenario.node[8].veinsmobility 	totalDistance 	2864.2757856438
scalar RSUExampleScenario.node[8].veinsmobility 	totalCO2Emission 	671.98733024583
scalar RSUExampleScenario.node[80].veinsmobility 	startTime 	192.9
scalar RSUExampleScenario.node[80].veinsmobility 	totalTime 	157.1
scalar RSUExampleScenario.node[80].veinsmobility 	stopTime 	350
scalar RSUExampleScenario.node[80].veinsmobility 	minSpeed 	0
scalar RSUExampleScenario.node[80].veinsmobility 	maxSpeed 	13.999599375874
scalar RSUExampleScenario.node[80].veinsmobility 	totalDistance 	490.96868608367
scalar RSUExampleScenario.node[80].veinsmobility 	totalCO2Emission 	254.32282801778
scalar RSUExampleScenario.node[81].veinsmobility 	startTime 	195.3
scalar RSUExampleScenario.node[81].veinsmobility 	totalTime 	154.7
scalar RSUExampleScenario.node[81].veinsmobility 	stopTime 	350
scalar RSUExampleScenario.node[81].veinsmobility 	minSpeed 	0
scalar RSUExampleScenario.node[81].veinsmobility 	maxSpeed 	13.996911810564
scalar RSUExampleScenario.node[81].veinsmobility 	totalDistance 	456.23193805533
scalar RSUExampleScenario.node[81].veinsmobility 	totalCO2Emission 	247.31444090661
scalar RSUExampleScenario.node[82].veinsmobility 	startTime 	197.7
scalar RSUExampleScenario.node[82].veinsmobility 	totalTime 	152.3
scalar RSUExampleScenario.node[82].veinsmobility 	stopTime 	350
scalar RSUExampleScenario.node[82].veinsmobility 	minSpeed 	0
scalar RSUExampleScenario.node[82].veinsmobility 	maxSpeed 	13.998785815907
scalar RSUExampleScenario.node[82].veinsmobility 	totalDistance 	422.51148249093
scalar RSUExampleScenario.node[82].veinsmobility 	totalCO2Emission 	242.81711300817
scalar RSUExampleScenario.node[83].veinsmobility 	startTime 	200.1
scalar RSUExampleScenario.node[83].veinsmobility 	totalTime 	149.9
scalar RSUExampleScenario.node[83].veinsmobility 	stopTime 	350
scalar RSUExampleScenario.node[83].veinsmobility 	minSpeed 	0
scalar RSUExampleScenario.node[83].veinsmobility 	maxSpeed 	13.997365770207
scalar RSUExampleScenario.node[83].veinsmobility 	totalDistance 	388.39405916018
scalar RSUExampleScenario.node[83].veinsmobility 	totalCO2Emission 	234.89410030343
scalar RSUExampleScenario.node[84].veinsmobility 	startTime 	202.5
scalar RSUExampleScenario.node[84].veinsmobility 	totalTime 	147.5
scalar RSUExampleScenario.node[84].veinsmobility 	stopTime 	350
scalar RSUExampleScenario.node[84].veinsmobility 	minSpeed 	0
scalar RSUExampleScenario.node[84].veinsmobility 	maxSpeed 	13.998031103862
scalar RSUExampleScenario.node[84].veinsmobility 	totalDistance 	354.92697042787
scalar RSUExampleScenario.node[84].veinsmobility 	totalCO2Emission 	231.29645147232
scalar RSUExampleScenario.node[85].veinsmobility 	startTime 	204.9
scalar RSUExampleScenario.node[85].veinsmobility 	totalTime 	145.1
scalar RSUExampleScenario.node[85].veinsmobility 	stopTime 	350
scalar RSUExampleScenario.node[85].veinsmobility 	minSpeed 	0
scalar RSUExampleScenario.node[85].veinsmobility 	maxSpeed 	13.988061615312
scalar RSUExampleScenario.node[85].veinsmobility 	totalDistance 	321.23860656684
scalar RSUExampleScenario.node[85].veinsmobility 	totalCO2Emission 	225.07554930648
scalar RSUExampleScenario.node[86].veinsmobility 	startTime 	207.3
scalar RSUExampleScenario.node[86].veinsmobility 	totalTime 	142.7
scalar RSUExampleScenario.node[86].veinsmobility 	stopTime 	350
scalar RSUExampleScenario.node[86].veinsmobility 	minSpeed 	0
scalar RSUExampleScenario.node[86].veinsmobility 	maxSpeed 	13.85728607463
scalar RSUExampleScenario.node[86].veinsmobility 	totalDistance 	284.53019745139
scalar RSUExampleScenario.node[86].veinsmobility 	totalCO2Emission 	217.18761790124
scalar RSUExampleScenario.node[87].veinsmobility 	startTime 	209.7
scalar RSUExampleScenario.node[87].veinsmobility 	totalTime 	140.3
scalar RSUExampleScenario.node[87].veinsmobility 	stopTime 	350
scalar RSUExampleScenario.node[87].veinsmobility 	minSpeed 	0
scalar RSUExampleScenario.node[87].veinsmobility 	maxSpeed 	13.869968133697
scalar RSUExampleScenario.node[87].veinsmobility 	totalDistance 	247.71488886077
scalar RSUExampleScenario.node[87].veinsmobility 	totalCO2Emission 	200.66085415077
scalar RSUExampleScenario.node[88].veinsmobility 	startTime 	212.1
scalar RSUExampleScenario.node[88].veinsmobility 	totalTime 	137.9
scalar RSUExampleScenario.node[88].veinsmobility 	stopTime 	35