version 2
run statistic-1803-20150306-10:16:41-12864
attr c 3
attr configname statistic
attr datetime 20150306-10:16:41
attr experiment statistic
attr inifile omnetpp.ini
attr iterationvars "$p=1/2, $c=3"
attr iterationvars2 "$p=1/2, $c=3, $repetition=3"
attr measurement "$p=1/2, $c=3"
attr network RSUExampleScenario
attr p 1/2
attr processid 12864
attr repetition 3
attr replication #3
attr resultdir results
attr runnumber 1803
attr seedset 1803

scalar . 	c 	3
scalar RSUExampleScenario.rsu[0].appl 	NumberofCH 	47
scalar RSUExampleScenario.rsu[0].appl 	NumberofON 	52
scalar RSUExampleScenario.rsu[0].appl 	NumberofFN 	1
scalar RSUExampleScenario.rsu[0].appl 	meanClusterNodes 	1.1063829787234
scalar RSUExampleScenario.rsu[0].appl 	varClusterNodes 	1.0154978352155
scalar RSUExampleScenario.rsu[0].appl 	GSScycles 	1
