version 2
run statisticRVV-91-20150327-04:49:38-7948
attr c 4
attr configname statisticRVV
attr datetime 20150327-04:49:38
attr experiment statisticRVV
attr inifile omnetpp.ini
attr iterationvars "$sc=\"erlangen-low.launchd.xml\", $p=1/5, $c=4"
attr iterationvars2 "$sc=\"erlangen-low.launchd.xml\", $p=1/5, $c=4, $repetition=1"
attr measurement "$sc=\"erlangen-low.launchd.xml\", $p=1/5, $c=4"
attr network RSUExampleScenario
attr p 1/5
attr processid 7948
attr repetition 1
attr replication #1
attr resultdir results
attr runnumber 91
attr sc "\"erlangen-low.launchd.xml\""
attr seedset 91

scalar . 	c 	4
scalar RSUExampleScenario.node[0].veinsmobility 	startTime 	0.1
scalar RSUExampleScenario.node[0].veinsmobility 	totalTime 	226.9
scalar RSUExampleScenario.node[0].veinsmobility 	stopTime 	227.1
scalar RSUExampleScenario.node[0].veinsmobility 	minSpeed 	0.25738695329195
scalar RSUExampleScenario.node[0].veinsmobility 	maxSpeed 	18.999829042857
scalar RSUExampleScenario.node[0].veinsmobility 	totalDistance 	3409.1570161509
scalar RSUExampleScenario.node[0].veinsmobility 	totalCO2Emission 	707.07014415027
scalar RSUExampleScenario.node[1].veinsmobility 	startTime 	6.1
scalar RSUExampleScenario.node[1].veinsmobility 	totalTime 	227
scalar RSUExampleScenario.node[1].veinsmobility 	stopTime 	233.2
scalar RSUExampleScenario.node[1].veinsmobility 	minSpeed 	0.24806348062237
scalar RSUExampleScenario.node[1].veinsmobility 	maxSpeed 	18.999896707449
scalar RSUExampleScenario.node[1].veinsmobility 	totalDistance 	3409.2054002718
scalar RSUExampleScenario.node[1].veinsmobility 	totalCO2Emission 	707.97899251042
scalar RSUExampleScenario.node[2].veinsmobility 	startTime 	12.1
scalar RSUExampleScenario.node[2].veinsmobility 	totalTime 	227
scalar RSUExampleScenario.node[2].veinsmobility 	stopTime 	239.2
scalar RSUExampleScenario.node[2].veinsmobility 	minSpeed 	0.25040062776417
scalar RSUExampleScenario.node[2].veinsmobility 	maxSpeed 	18.999774442168
scalar RSUExampleScenario.node[2].veinsmobility 	totalDistance 	3409.4467445113
scalar RSUExampleScenario.node[2].veinsmobility 	totalCO2Emission 	708.05980442164
scalar RSUExampleScenario.node[3].veinsmobility 	startTime 	18.1
scalar RSUExampleScenario.node[3].veinsmobility 	totalTime 	226.8
scalar RSUExampleScenario.node[3].veinsmobility 	stopTime 	245
scalar RSUExampleScenario.node[3].veinsmobility 	minSpeed 	0.2586292584301
scalar RSUExampleScenario.node[3].veinsmobility 	maxSpeed 	18.999948945963
scalar RSUExampleScenario.node[3].veinsmobility 	totalDistance 	3409.1575065043
scalar RSUExampleScenario.node[3].veinsmobility 	totalCO2Emission 	705.73736699112
scalar RSUExampleScenario.node[4].veinsmobility 	startTime 	24.1
scalar RSUExampleScenario.node[4].veinsmobility 	totalTime 	226.8
scalar RSUExampleScenario.node[4].veinsmobility 	stopTime 	251
scalar RSUExampleScenario.node[4].veinsmobility 	minSpeed 	0.25209950645198
scalar RSUExampleScenario.node[4].veinsmobility 	maxSpeed 	18.999984862497
scalar RSUExampleScenario.node[4].veinsmobility 	totalDistance 	3409.7451641914
scalar RSUExampleScenario.node[4].veinsmobility 	totalCO2Emission 	704.49872735557
scalar RSUExampleScenario.node[5].veinsmobility 	startTime 	30.1
scalar RSUExampleScenario.node[5].veinsmobility 	totalTime 	226.9
scalar RSUExampleScenario.node[5].veinsmobility 	stopTime 	257.1
scalar RSUExampleScenario.node[5].veinsmobility 	minSpeed 	0.2526713324564
scalar RSUExampleScenario.node[5].veinsmobility 	maxSpeed 	18.999953403135
scalar RSUExampleScenario.node[5].veinsmobility 	totalDistance 	3410.040688065
scalar RSUExampleScenario.node[5].veinsmobility 	totalCO2Emission 	708.74312837746
scalar RSUExampleScenario.node[6].veinsmobility 	startTime 	36.1
scalar RSUExampleScenario.node[6].veinsmobility 	totalTime 	226.7
scalar RSUExampleScenario.node[6].veinsmobility 	stopTime 	262.9
scalar RSUExampleScenario.node[6].veinsmobility 	minSpeed 	0.24835093441023
scalar RSUExampleScenario.node[6].veinsmobility 	maxSpeed 	18.999942194568
scalar RSUExampleScenario.node[6].veinsmobility 	totalDistance 	3409.5513297287
scalar RSUExampleScenario.node[6].veinsmobility 	totalCO2Emission 	711.11791477958
scalar RSUExampleScenario.node[7].veinsmobility 	startTime 	42.1
scalar RSUExampleScenario.node[7].veinsmobility 	totalTime 	226.8
scalar RSUExampleScenario.node[7].veinsmobility 	stopTime 	269
scalar RSUExampleScenario.node[7].veinsmobility 	minSpeed 	0.25508639513003
scalar RSUExampleScenario.node[7].veinsmobility 	maxSpeed 	18.999884885622
scalar RSUExampleScenario.node[7].veinsmobility 	totalDistance 	3409.688324914
scalar RSUExampleScenario.node[7].veinsmobility 	totalCO2Emission 	711.34811152325
scalar RSUExampleScenario.node[8].veinsmobility 	startTime 	48.1
scalar RSUExampleScenario.node[8].veinsmobility 	totalTime 	227.2
scalar RSUExampleScenario.node[8].veinsmobility 	stopTime 	275.4
scalar RSUExampleScenario.node[8].veinsmobility 	minSpeed 	0.24846175734536
scalar RSUExampleScenario.node[8].veinsmobility 	maxSpeed 	18.999909681547
scalar RSUExampleScenario.node[8].veinsmobility 	totalDistance 	3409.309277863
scalar RSUExampleScenario.node[8].veinsmobility 	totalCO2Emission 	709.28143128695
scalar RSUExampleScenario.node[9].veinsmobility 	startTime 	54.1
scalar RSUExampleScenario.node[9].veinsmobility 	totalTime 	227
scalar RSUExampleScenario.node[9].veinsmobility 	stopTime 	281.2
scalar RSUExampleScenario.node[9].veinsmobility 	minSpeed 	0.2475280031187
scalar RSUExampleScenario.node[9].veinsmobility 	maxSpeed 	18.999994496524
scalar RSUExampleScenario.node[9].veinsmobility 	totalDistance 	3409.3875116509
scalar RSUExampleScenario.node[9].veinsmobility 	totalCO2Emission 	709.62500357868
scalar RSUExampleScenario.node[10].veinsmobility 	startTime 	60.1
scalar RSUExampleScenario.node[10].veinsmobility 	totalTime 	227
scalar RSUExampleScenario.node[10].veinsmobility 	stopTime 	287.2
scalar RSUExampleScenario.node[10].veinsmobility 	minSpeed 	0.24941038223845
scalar RSUExampleScenario.node[10].veinsmobility 	maxSpeed 	18.999786201643
scalar RSUExampleScenario.node[10].veinsmobility 	totalDistance 	3409.3294375979
scalar RSUExampleScenario.node[10].veinsmobility 	totalCO2Emission 	706.95084005255
scalar RSUExampleScenario.node[11].veinsmobility 	startTime 	66.1
scalar RSUExampleScenario.node[11].veinsmobility 	totalTime 	227
scalar RSUExampleScenario.node[11].veinsmobility 	stopTime 	293.2
scalar RSUExampleScenario.node[11].veinsmobility 	minSpeed 	0.24766904345062
scalar RSUExampleScenario.node[11].veinsmobility 	maxSpeed 	18.999839812447
scalar RSUExampleScenario.node[11].veinsmobility 	totalDistance 	3409.8483920993
scalar RSUExampleScenario.node[11].veinsmobility 	totalCO2Emission 	706.92876570169
scalar RSUExampleScenario.node[12].veinsmobility 	startTime 	72.1
scalar RSUExampleScenario.node[12].veinsmobility 	totalTime 	226.8
scalar RSUExampleScenario.node[12].veinsmobility 	stopTime 	299
scalar RSUExampleScenario.node[12].veinsmobility 	minSpeed 	0.24952263098629
scalar RSUExampleScenario.node[12].veinsmobility 	maxSpeed 	18.999686660354
scalar RSUExampleScenario.node[12].veinsmobility 	totalDistance 	3408.973796499
scalar RSUExampleScenario.node[12].veinsmobility 	totalCO2Emission 	710.52576442515
scalar RSUExampleScenario.node[13].veinsmobility 	startTime 	78.1
scalar RSUExampleScenario.node[13].veinsmobility 	totalTime 	226.9
scalar RSUExampleScenario.node[13].veinsmobility 	stopTime 	305.1
scalar RSUExampleScenario.node[13].veinsmobility 	minSpeed 	0.24990680531389
scalar RSUExampleScenario.node[13].veinsmobility 	maxSpeed 	18.999690701161
scalar RSUExampleScenario.node[13].veinsmobility 	totalDistance 	3409.7684227635
scalar RSUExampleScenario.node[13].veinsmobility 	totalCO2Emission 	706.65910870025
scalar RSUExampleScenario.node[14].veinsmobility 	startTime 	84.1
scalar RSUExampleScenario.node[14].veinsmobility 	totalTime 	226.7
scalar RSUExampleScenario.node[14].veinsmobility 	stopTime 	310.9
scalar RSUExampleScenario.node[14].veinsmobility 	minSpeed 	0.25758470536466
scalar RSUExampleScenario.node[14].veinsmobility 	maxSpeed 	18.999649006044
scalar RSUExampleScenario.node[14].veinsmobility 	totalDistance 	3409.3500407784
scalar RSUExampleScenario.node[14].veinsmobility 	totalCO2Emission 	709.19629135593
scalar RSUExampleScenario.node[15].veinsmobility 	startTime 	90.1
scalar RSUExampleScenario.node[15].veinsmobility 	totalTime 	227.1
scalar RSUExampleScenario.node[15].veinsmobility 	stopTime 	317.3
scalar RSUExampleScenario.node[15].veinsmobility 	minSpeed 	0.25295741169038
scalar RSUExampleScenario.node[15].veinsmobility 	maxSpeed 	18.999990508172
scalar RSUExampleScenario.node[15].veinsmobility 	totalDistance 	3409.3282498708
scalar RSUExampleScenario.node[15].veinsmobility 	totalCO2Emission 	708.58056527926
scalar RSUExampleScenario.node[16].veinsmobility 	startTime 	96.1
scalar RSUExampleScenario.node[16].veinsmobility 	totalTime 	227.1
scalar RSUExampleScenario.node[16].veinsmobility 	stopTime 	323.3
scalar RSUExampleScenario.node[16].veinsmobility 	minSpeed 	0.24997280431329
scalar RSUExampleScenario.node[16].veinsmobility 	maxSpeed 	18.999456904202
scalar RSUExampleScenario.node[16].veinsmobility 	totalDistance 	3409.2927238405
scalar RSUExampleScenario.node[16].veinsmobility 	totalCO2Emission 	709.57956825401
scalar RSUExampleScenario.node[17].veinsmobility 	startTime 	102.1
scalar RSUExampleScenario.node[17].veinsmobility 	totalTime 	227
scalar RSUExampleScenario.node[17].veinsmobility 	stopTime 	329.2
scalar RSUExampleScenario.node[17].veinsmobility 	minSpeed 	0.25997868624539
scalar RSUExampleScenario.node[17].veinsmobility 	maxSpeed 	18.999893092816
scalar RSUExampleScenario.node[17].veinsmobility 	totalDistance 	3409.4277981675
scalar RSUExampleScenario.node[17].veinsmobility 	totalCO2Emission 	708.46962261174
scalar RSUExampleScenario.node[18].veinsmobility 	startTime 	108.1
scalar RSUExampleScenario.node[18].veinsmobility 	totalTime 	226.8
scalar RSUExampleScenario.node[18].veinsmobility 	stopTime 	335
scalar RSUExampleScenario.node[18].veinsmobility 	minSpeed 	0.24730772911152
scalar RSUExampleScenario.node[18].veinsmobility 	maxSpeed 	18.99974527945
scalar RSUExampleScenario.node[18].veinsmobility 	totalDistance 	3409.3461717832
scalar RSUExampleScenario.node[18].veinsmobility 	totalCO2Emission 	709.24305190961
scalar RSUExampleScenario.node[19].veinsmobility 	startTime 	114.1
scalar RSUExampleScenario.node[19].veinsmobility 	totalTime 	226.9
scalar RSUExampleScenario.node[19].veinsmobility 	stopTime 	341.1
scalar RSUExampleScenario.node[19].veinsmobility 	minSpeed 	0.25441427422455
scalar RSUExampleScenario.node[19].veinsmobility 	maxSpeed 	18.999881228039
scalar RSUExampleScenario.node[19].veinsmobility 	totalDistance 	3409.338209017
scalar RSUExampleScenario.node[19].veinsmobility 	totalCO2Emission 	708.57475201156
scalar RSUExampleScenario.node[20].veinsmobility 	startTime 	120.1
scalar RSUExampleScenario.node[20].veinsmobility 	totalTime 	226.8
scalar RSUExampleScenario.node[20].veinsmobility 	stopTime 	347
scalar RSUExampleScenario.node[20].veinsmobility 	minSpeed 	0.25942351193912
scalar RSUExampleScenario.node[20].veinsmobility 	maxSpeed 	18.999779000103
scalar RSUExampleScenario.node[20].veinsmobility 	totalDistance 	3409.7564819181
scalar RSUExampleScenario.node[20].veinsmobility 	totalCO2Emission 	705.24894478082
scalar RSUExampleScenario.node[21].veinsmobility 	startTime 	126.1
scalar RSUExampleScenario.node[21].veinsmobility 	totalTime 	227
scalar RSUExampleScenario.node[21].veinsmobility 	stopTime 	353.2
scalar RSUExampleScenario.node[21].veinsmobility 	minSpeed 	0.2497389631425
scalar RSUExampleScenario.node[21].veinsmobility 	maxSpeed 	18.999998254566
scalar RSUExampleScenario.node[21].veinsmobility 	totalDistance 	3409.6408346685
scalar RSUExampleScenario.node[21].veinsmobility 	totalCO2Emission 	706.22129837664
scalar RSUExampleScenario.node[22].veinsmobility 	startTime 	132.1
scalar RSUExampleScenario.node[22].veinsmobility 	totalTime 	227
scalar RSUExampleScenario.node[22].veinsmobility 	stopTime 	359.2
scalar RSUExampleScenario.node[22].veinsmobility 	minSpeed 	0.25486241760501
scalar RSUExampleScenario.node[22].veinsmobility 	maxSpeed 	18.99990522716
scalar RSUExampleScenario.node[22].veinsmobility 	totalDistance 	3409.3556899537
scalar RSUExampleScenario.node[22].veinsmobility 	totalCO2Emission 	707.81787267796
scalar RSUExampleScenario.node[23].veinsmobility 	startTime 	138.1
scalar RSUExampleScenario.node[23].veinsmobility 	totalTime 	227
scalar RSUExampleScenario.node[23].veinsmobility 	stopTime 	365.2
scalar RSUExampleScenario.node[23].veinsmobility 	minSpeed 	0.247310823465
scalar RSUExampleScenario.node[23].veinsmobility 	maxSpeed 	18.999902918469
scalar RSUExampleScenario.node[23].veinsmobility 	totalDistance 	3409.3225106961
scalar RSUExampleScenario.node[23].veinsmobility 	totalCO2Emission 	707.80483358656
scalar RSUExampleScenario.node[24].veinsmobility 	startTime 	144.1
scalar RSUExampleScenario.node[24].veinsmobility 	totalTime 	226.8
scalar RSUExampleScenario.node[24].veinsmobility 	stopTime 	371
scalar RSUExampleScenario.node[24].veinsmobility 	minSpeed 	0.25848021652666
scalar RSUExampleScenario.node[24].veinsmobility 	maxSpeed 	18.999904718113
scalar RSUExampleScenario.node[24].veinsmobility 	totalDistance 	3409.5810117237
scalar RSUExampleScenario.node[24].veinsmobility 	totalCO2Emission 	703.29903797735
scalar RSUExampleScenario.node[25].veinsmobility 	startTime 	150.1
scalar RSUExampleScenario.node[25].veinsmobility 	totalTime 	227
scalar RSUExampleScenario.node[25].veinsmobility 	stopTime 	377.2
scalar RSUExampleScenario.node[25].veinsmobility 	minSpeed 	0.25009573515318
scalar RSUExampleScenario.node[25].veinsmobility 	maxSpeed 	18.999261800381
scalar RSUExampleScenario.node[25].veinsmobility 	totalDistance 	3409.1098622954
scalar RSUExampleScenario.node[25].veinsmobility 	totalCO2Emission 	709.86620470299
scalar RSUExampleScenario.node[26].veinsmobility 	startTime 	156.1
scalar RSUExampleScenario.node[26].veinsmobility 	totalTime 	227
scalar RSUExampleScenario.node[26].veinsmobility 	stopTime 	383.2
scalar RSUExampleScenario.node[26].veinsmobility 	minSpeed 	0.2530674585877
scalar RSUExampleScenario.node[26].veinsmobility 	maxSpeed 	18.999945321372
scalar RSUExampleScenario.node[26].veinsmobility 	totalDistance 	3409.313829762
scalar RSUExampleScenario.node[26].veinsmobility 	totalCO2Emission 	709.17795831362
scalar RSUExampleScenario.node[27].veinsmobility 	startTime 	162.1
scalar RSUExampleScenario.node[27].veinsmobility 	totalTime 	226.9
scalar RSUExampleScenario.node[27].veinsmobility 	stopTime 	389.1
scalar RSUExampleScenario.node[27].veinsmobility 	minSpeed 	0.24713372405479
scalar RSUExampleScenario.node[27].veinsmobility 	maxSpeed 	18.999706969203
scalar RSUExampleScenario.node[27].veinsmobility 	totalDistance 	3409.64680153
scalar RSUExampleScenario.node[27].veinsmobility 	totalCO2Emission 	707.50329610991
scalar RSUExampleScenario.node[28].veinsmobility 	startTime 	168.1
scalar RSUExampleScenario.node[28].veinsmobility 	totalTime 	227.2
scalar RSUExampleScenario.node[28].veinsmobility 	stopTime 	395.4
scalar RSUExampleScenario.node[28].veinsmobility 	minSpeed 	0.25039214432333
scalar RSUExampleScenario.node[28].veinsmobility 	maxSpeed 	18.99981487968
scalar RSUExampleScenario.node[28].veinsmobility 	totalDistance 	3409.6830005997
scalar RSUExampleScenario.node[28].veinsmobility 	totalCO2Emission 	703.54263345531
scalar RSUExampleScenario.node[29].veinsmobility 	startTime 	174.1
scalar RSUExampleScenario.node[29].veinsmobility 	totalTime 	226.9
scalar RSUExampleScenario.node[29].veinsmobility 	stopTime 	401.1
scalar RSUExampleScenario.node[29].veinsmobility 	minSpeed 	0.25568218749342
scalar RSUExampleScenario.node[29].veinsmobility 	maxSpeed 	18.999572105298
scalar RSUExampleScenario.node[29].veinsmobility 	totalDistance 	3409.5236064723
scalar RSUExampleScenario.node[29].veinsmobility 	totalCO2Emission 	704.5196455892
scalar RSUExampleScenario.node[30].veinsmobility 	startTime 	180.1
scalar RSUExampleScenario.node[30].veinsmobility 	totalTime 	226.9
scalar RSUExampleScenario.node[30].veinsmobility 	stopTime 	407.1
scalar RSUExampleScenario.node[30].veinsmobility 	minSpeed 	0.24709936175123
scalar RSUExampleScenario.node[30].veinsmobility 	maxSpeed 	18.999553148672
scalar RSUExampleScenario.node[30].veinsmobility 	totalDistance 	3409.4663831248
scalar RSUExampleScenario.node[30].veinsmobility 	totalCO2Emission 	707.11715401419
scalar RSUExampleScenario.node[31].veinsmobility 	startTime 	186.1
scalar RSUExampleScenario.node[31].veinsmobility 	totalTime 	226.8
scalar RSUExampleScenario.node[31].veinsmobility 	stopTime 	413
scalar RSUExampleScenario.node[31].veinsmobility 	minSpeed 	0.25283929492789
scalar RSUExampleScenario.node[31].veinsmobility 	maxSpeed 	18.999884130224
scalar RSUExampleScenario.node[31].veinsmobility 	totalDistance 	3409.4710306644
scalar RSUExampleScenario.node[31].veinsmobility 	totalCO2Emission 	705.3837154909
scalar RSUExampleScenario.node[32].veinsmobility 	startTime 	192.1
scalar RSUExampleScenario.node[32].veinsmobility 	totalTime 	226.8
scalar RSUExampleScenario.node[32].veinsmobility 	stopTime 	419
scalar RSUExampleScenario.node[32].veinsmobility 	minSpeed 	0.25968729801918
scalar RSUExampleScenario.node[32].veinsmobility 	maxSpeed 	18.999813801837
scalar RSUExampleScenario.node[32].veinsmobility 	totalDistance 	3409.7062962395
scalar RSUExampleScenario.node[32].veinsmobility 	totalCO2Emission 	706.48101675789
scalar RSUExampleScenario.node[33].veinsmobility 	startTime 	198.1
scalar RSUExampleScenario.node[33].veinsmobility 	totalTime 	226.9
scalar RSUExampleScenario.node[33].veinsmobility 	stopTime 	425.1
scalar RSUExampleScenario.node[33].veinsmobility 	minSpeed 	0.25585752697173
scalar RSUExampleScenario.node[33].veinsmobility 	maxSpeed 	18.999815019639
scalar RSUExampleScenario.node[33].veinsmobility 	totalDistance 	3409.219172793
scalar RSUExampleScenario.node[33].veinsmobility 	totalCO2Emission 	711.44311166744
scalar RSUExampleScenario.node[34].veinsmobility 	startTime 	204.1
scalar RSUExampleScenario.node[34].veinsmobility 	totalTime 	227.2
scalar RSUExampleScenario.node[34].veinsmobility 	stopTime 	431.4
scalar RSUExampleScenario.node[34].veinsmobility 	minSpeed 	0.25252885220386
scalar RSUExampleScenario.node[34].veinsmobility 	maxSpeed 	18.999194003821
scalar RSUExampleScenario.node[34].veinsmobility 	totalDistance 	3409.9433736421
scalar RSUExampleScenario.node[34].veinsmobility 	totalCO2Emission 	705.30907614932
scalar RSUExampleScenario.node[35].veinsmobility 	startTime 	210.1
scalar RSUExampleScenario.node[35].veinsmobility 	totalTime 	226.7
scalar RSUExampleScenario.node[35].veinsmobility 	stopTime 	436.9
scalar RSUExampleScenario.node[35].veinsmobility 	minSpeed 	0.25447498853086
scalar RSUExampleScenario.node[35].veinsmobility 	maxSpeed 	18.999922202383
scalar RSUExampleScenario.node[35].veinsmobility 	totalDistance 	3409.5073772381
scalar RSUExampleScenario.node[35].veinsmobility 	totalCO2Emission 	706.94432251438
scalar RSUExampleScenario.node[36].veinsmobility 	startTime 	216.1
scalar RSUExampleScenario.node[36].veinsmobility 	totalTime 	226.9
scalar RSUExampleScenario.node[36].veinsmobility 	stopTime 	443.1
scalar RSUExampleScenario.node[36].veinsmobility 	minSpeed 	0.25199404237862
scalar RSUExampleScenario.node[36].veinsmobility 	maxSpeed 	18.999801255274
scalar RSUExampleScenario.node[36].veinsmobility 	totalDistance 	3409.2608432232
scalar RSUExampleScenario.node[36].veinsmobility 	totalCO2Emission 	705.82343141384
scalar RSUExampleScenario.node[37].veinsmobility 	startTime 	222.1
scalar RSUExampleScenario.node[37].veinsmobility 	totalTime 	226.9
scalar RSUExampleScenario.node[37].veinsmobility 	stopTime 	449.1
scalar RSUExampleScenario.node[37].veinsmobility 	minSpeed 	0.25479153338936
scalar RSUExampleScenario.node[37].veinsmobility 	maxSpeed 	18.999948883581
scalar RSUExampleScenario.node[37].veinsmobility 	totalDistance 	3409.6371375555
scalar RSUExampleScenario.node[37].veinsmobility 	totalCO2Emission 	707.06214383422
scalar RSUExampleScenario.node[38].veinsmobility 	startTime 	228.1
scalar RSUExampleScenario.node[38].veinsmobility 	totalTime 	227
scalar RSUExampleScenario.node[38].veinsmobility 	stopTime 	455.2
scalar RSUExampleScenario.node[38].veinsmobility 	minSpeed 	0.25686339285038
scalar RSUExampleScenario.node[38].veinsmobility 	maxSpeed 	18.999884103769
scalar RSUExampleScenario.node[38].veinsmobility 	totalDistance 	3409.078590537
scalar RSUExampleScenario.node[38].veinsmobility 	totalCO2Emission 	708.97808257339
scalar RSUExampleScenario.node[39].veinsmobility 	startTime 	234.1
scalar RSUExampleScenario.node[39].veinsmobility 	totalTime 	226.7
scalar RSUExampleScenario.node[39].veinsmobility 	stopTime 	460.9
scalar RSUExampleScenario.node[39].veinsmobility 	minSpeed 	0.25365971316257
scalar RSUExampleScenario.node[39].veinsmobility 	maxSpeed 	18.999913488503
scalar RSUExampleScenario.node[39].veinsmobility 	totalDistance 	3409.5514932407
scalar RSUExampleScenario.node[39].veinsmobility 	totalCO2Emission 	702.43251319541
scalar RSUExampleScenario.node[40].veinsmobility 	startTime 	240.1
scalar RSUExampleScenario.node[40].veinsmobility 	totalTime 	227
scalar RSUExampleScenario.node[40].veinsmobility 	stopTime 	467.2
scalar RSUExampleScenario.node[40].veinsmobility 	minSpeed 	0.24744713259325
scalar RSUExampleScenario.node[40].veinsmobility 	maxSpeed 	18.999976661932
scalar RSUExampleScenario.node[40].veinsmobility 	totalDistance 	3409.2571011551
scalar RSUExampleScenario.node[40].veinsmobility 	totalCO2Emission 	708.75887837915
scalar RSUExampleScenario.node[41].veinsmobility 	startTime 	246.1
scalar RSUExampleScenario.node[41].veinsmobility 	totalTime 	227.1
scalar RSUExampleScenario.node[41].veinsmobility 	stopTime 	473.3
scalar RSUExampleScenario.node[41].veinsmobility 	minSpeed 	0.25865232908679
scalar RSUExampleScenario.node[41].veinsmobility 	maxSpeed 	18.999936808925
scalar RSUExampleScenario.node[41].veinsmobility 	totalDistance 	3409.6167538114
scalar RSUExampleScenario.node[41].veinsmobility 	totalCO2Emission 	706.62093861355
scalar RSUExampleScenario.node[42].veinsmobility 	startTime 	252.1
scalar RSUExampleScenario.node[42].veinsmobility 	totalTime 	227
scalar RSUExampleScenario.node[42].veinsmobility 	stopTime 	479.2
scalar RSUExampleScenario.node[42].veinsmobility 	minSpeed 	0.24926482440997
scalar RSUExampleScenario.node[42].veinsmobility 	maxSpeed 	18.999837042443
scalar RSUExampleScenario.node[42].veinsmobility 	totalDistance 	3409.899227188
scalar RSUExampleScenario.node[42].veinsmobility 	totalCO2Emission 	708.25580160451
scalar RSUExampleScenario.node[43].veinsmobility 	startTime 	258.1
scalar RSUExampleScenario.node[43].veinsmobility 	totalTime 	226.8
scalar RSUExampleScenario.node[43].veinsmobility 	stopTime 	485
scalar RSUExampleScenario.node[43].veinsmobility 	minSpeed 	0.2506960366834
scalar RSUExampleScenario.node[43].veinsmobility 	maxSpeed 	18.999723656941
scalar RSUExampleScenario.node[43].veinsmobility 	totalDistance 	3409.2401590824
scalar RSUExampleScenario.node[43].veinsmobility 	totalCO2Emission 	702.70000778431
scalar RSUExampleScenario.node[44].veinsmobility 	startTime 	264.1
scalar RSUExampleScenario.node[44].veinsmobility 	totalTime 	226.6
scalar RSUExampleScenario.node[44].veinsmobility 	stopTime 	490.8
scalar RSUExampleScenario.node[44].veinsmobility 	minSpeed 	0.25566464204527
scalar RSUExampleScenario.node[44].veinsmobility 	maxSpeed 	18.999249853063
scalar RSUExampleScenario.node[44].veinsmobility 	totalDistance 	3409.6556159143
scalar RSUExampleScenario.node[44].veinsmobility 	totalCO2Emission 	707.92678775086
scalar RSUExampleScenario.node[45].veinsmobility 	startTime 	270.1
scalar RSUExampleScenario.node[45].veinsmobility 	totalTime 	226.7
scalar RSUExampleScenario.node[45].veinsmobility 	stopTime 	496.9
scalar RSUExampleScenario.node[45].veinsmobility 	minSpeed 	0.25645179037214
scalar RSUExampleScenario.node[45].veinsmobility 	maxSpeed 	18.999770442254
scalar RSUExampleScenario.node[45].veinsmobility 	totalDistance 	3409.4164714287
scalar RSUExampleScenario.node[45].veinsmobility 	totalCO2Emission 	706.24702574614
scalar RSUExampleScenario.node[46].veinsmobility 	startTime 	276.1
scalar RSUExampleScenario.node[46].veinsmobility 	totalTime 	227.1
scalar RSUExampleScenario.node[46].veinsmobility 	stopTime 	503.3
scalar RSUExampleScenario.node[46].veinsmobility 	minSpeed 	0.25175114049902
scalar RSUExampleScenario.node[46].veinsmobility 	maxSpeed 	18.999880904595
scalar RSUExampleScenario.node[46].veinsmobility 	totalDistance 	3409.9082043685
scalar RSUExampleScenario.node[46].veinsmobility 	totalCO2Emission 	709.20786449267
scalar RSUExampleScenario.node[47].veinsmobility 	startTime 	282.1
scalar RSUExampleScenario.node[47].veinsmobility 	totalTime 	227.1
scalar RSUExampleScenario.node[47].veinsmobility 	stopTime 	509.3
scalar RSUExampleScenario.node[47].veinsmobility 	minSpeed 	0.2497175057542
scalar RSUExampleScenario.node[47].veinsmobility 	maxSpeed 	18.999216393684
scalar RSUExampleScenario.node[47].veinsmobility 	totalDistance 	3409.6077894263
scalar RSUExampleScenario.node[47].veinsmobility 	totalCO2Emission 	707.10240660252
scalar RSUExampleScenario.node[48].veinsmobility 	startTime 	288.1
scalar RSUExampleScenario.node[48].veinsmobility 	totalTime 	226.9
scalar RSUExampleScenario.node[48].veinsmobility 	stopTime 	515.1
scalar RSUExampleScenario.node[48].veinsmobility 	minSpeed 	0.25532191569568
scalar RSUExampleScenario.node[48].veinsmobility 	maxSpeed 	18.999846025466
scalar RSUExampleScenario.node[48].veinsmobility 	totalDistance 	3409.6389836412
scalar RSUExampleScenario.node[48].veinsmobility 	totalCO2Emission 	710.82365527174
scalar RSUExampleScenario.node[49].veinsmobility 	startTime 	294.1
scalar RSUExampleScenario.node[49].veinsmobility 	totalTime 	227
scalar RSUExampleScenario.node[49].veinsmobility 	stopTime 	521.2
scalar RSUExampleScenario.node[49].veinsmobility 	minSpeed 	0.25721805693512
scalar RSUExampleScenario.node[49].veinsmobility 	maxSpeed 	18.999956733189
scalar RSUExampleScenario.node[49].veinsmobility 	totalDistance 	3409.9454035643
scalar RSUExampleScenario.node[49].veinsmobility 	totalCO2Emission 	705.99899067518
scalar RSUExampleScenario.node[50].veinsmobility 	startTime 	300.1
scalar RSUExampleScenario.node[50].veinsmobility 	totalTime 	226.6
scalar RSUExampleScenario.node[50].veinsmobility 	stopTime 	526.8
scalar RSUExampleScenario.node[50].veinsmobility 	minSpeed 	0.25121507174056
scalar RSUExampleScenario.node[50].veinsmobility 	maxSpeed 	18.999931596566
scalar RSUExampleScenario.node[50].veinsmobility 	totalDistance 	3409.4597715411
scalar RSUExampleScenario.node[50].veinsmobility 	totalCO2Emission 	710.37635019146
scalar RSUExampleScenario.node[51].veinsmobility 	startTime 	306.1
scalar RSUExampleScenario.node[51].veinsmobility 	totalTime 	226.6
scalar RSUExampleScenario.node[51].veinsmobility 	stopTime 	532.8
scalar RSUExampleScenario.node[51].veinsmobility 	minSpeed 	0.25024968881789
scalar RSUExampleScenario.node[51].veinsmobility 	maxSpeed 	18.999536172177
scalar RSUExampleScenario.node[51].veinsmobility 	totalDistance 	3409.3061880075
scalar RSUExampleScenario.node[51].veinsmobility 	totalCO2Emission 	708.12996093869
scalar RSUExampleScenario.node[52].veinsmobility 	startTime 	312.1
scalar RSUExampleScenario.node[52].veinsmobility 	totalTime 	227.1
scalar RSUExampleScenario.node[52].veinsmobility 	stopTime 	539.3
scalar RSUExampleScenario.node[52].veinsmobility 	minSpeed 	0.25027776131034
scalar RSUExampleScenario.node[52].veinsmobility 	maxSpeed 	18.999897370439
scalar RSUExampleScenario.node[52].veinsmobility 	totalDistance 	3409.3644603275
scalar RSUExampleScenario.node[52].veinsmobility 	totalCO2Emission 	704.90864475947
scalar RSUExampleScenario.node[53].veinsmobility 	startTime 	318.1
scalar RSUExampleScenario.node[53].veinsmobility 	totalTime 	226.9
scalar RSUExampleScenario.node[53].veinsmobility 	stopTime 	545.1
scalar RSUExampleScenario.node[53].veinsmobility 	minSpeed 	0.25605041480996
scalar RSUExampleScenario.node[53].veinsmobility 	maxSpeed 	18.999975339705
scalar RSUExampleScenario.node[53].veinsmobility 	totalDistance 	3409.1753465119
scalar RSUExampleScenario.node[53].veinsmobility 	totalCO2Emission 	703.36713729921
scalar RSUExampleScenario.node[54].veinsmobility 	startTime 	324.1
scalar RSUExampleScenario.node[54].veinsmobility 	totalTime 	226.9
scalar RSUExampleScenario.node[54].veinsmobility 	stopTime 	551.1
scalar RSUExampleScenario.node[54].veinsmobility 	minSpeed 	0.25545371232159
scalar RSUExampleScenario.node[54].veinsmobility 	maxSpeed 	18.999989514202
scalar RSUExampleScenario.node[54].veinsmobility 	totalDistance 	3409.1356424421
scalar RSUExampleScenario.node[54].veinsmobility 	totalCO2Emission 	705.42919713663
scalar RSUExampleScenario.node[55].veinsmobility 	startTime 	330.1
scalar RSUExampleScenario.node[55].veinsmobility 	totalTime 	227.2
scalar RSUExampleScenario.node[55].veinsmobility 	stopTime 	557.4
scalar RSUExampleScenario.node[55].veinsmobility 	minSpeed 	0.25841714139329
scalar RSUExampleScenario.node[55].veinsmobility 	maxSpeed 	18.99984354001
scalar RSUExampleScenario.node[55].veinsmobility 	totalDistance 	3409.2987134938
scalar RSUExampleScenario.node[55].veinsmobility 	totalCO2Emission 	705.06826402112
scalar RSUExampleScenario.node[56].veinsmobility 	startTime 	336.1
scalar RSUExampleScenario.node[56].veinsmobility 	totalTime 	227.2
scalar RSUExampleScenario.node[56].veinsmobility 	stopTime 	563.4
scalar RSUExampleScenario.node[56].veinsmobility 	minSpeed 	0.25789458266157
scalar RSUExampleScenario.node[56].veinsmobility 	maxSpeed 	18.999989298149
scalar RSUExampleScenario.node[56].veinsmobility 	totalDistance 	3409.3182113088
scalar RSUExampleScenario.node[56].veinsmobility 	totalCO2Emission 	705.91796385491
scalar RSUExampleScenario.node[57].veinsmobility 	startTime 	342.1
scalar RSUExampleScenario.node[57].veinsmobility 	totalTime 	227.2
scalar RSUExampleScenario.node[57].veinsmobility 	stopTime 	569.4
scalar RSUExampleScenario.node[57].veinsmobility 	minSpeed 	0.24790836130432
scalar RSUExampleScenario.node[57].veinsmobility 	maxSpeed 	18.999734735477
scalar RSUExampleScenario.node[57].veinsmobility 	totalDistance 	3410.0104568748
scalar RSUExampleScenario.node[57].veinsmobility 	totalCO2Emission 	707.57613363907
scalar RSUExampleScenario.node[58].veinsmobility 	startTime 	348.1
scalar RSUExampleScenario.node[58].veinsmobility 	totalTime 	226.9
scalar RSUExampleScenario.node[58].veinsmobility 	stopTime 	575.1
scalar RSUExampleScenario.node[58].veinsmobility 	minSpeed 	0.24951750675286
scalar RSUExampleScenario.node[58].veinsmobility 	maxSpeed 	18.999343963852
scalar RSUExampleScenario.node[58].veinsmobility 	totalDistance 	3409.4128963404
scalar RSUExampleScenario.node[58].veinsmobility 	totalCO2Emission 	708.38527099876
scalar RSUExampleScenario.node[59].veinsmobility 	startTime 	354.1
scalar RSUExampleScenario.node[59].veinsmobility 	totalTime 	227.2
scalar RSUExampleScenario.node[59].veinsmobility 	stopTime 	581.4
scalar RSUExampleScenario.node[59].veinsmobility 	minSpeed 	0.2553128871466
scalar RSUExampleScenario.node[59].veinsmobility 	maxSpeed 	18.999931929696
scalar RSUExampleScenario.node[59].veinsmobility 	totalDistance 	3409.6190981323
scalar RSUExampleScenario.node[59].veinsmobility 	totalCO2Emission 	708.47176492251
scalar RSUExampleScenario.node[60].veinsmobility 	startTime 	360.1
scalar RSUExampleScenario.node[60].veinsmobility 	totalTime 	227
scalar RSUExampleScenario.node[60].veinsmobility 	stopTime 	587.2
scalar RSUExampleScenario.node[60].veinsmobility 	minSpeed 	0.25238035652251
scalar RSUExampleScenario.node[60].veinsmobility 	maxSpeed 	18.999974331569
scalar RSUExampleScenario.node[60].veinsmobility 	totalDistance 	3409.5101106659
scalar RSUExampleScenario.node[60].veinsmobility 	totalCO2Emission 	706.47924193966
scalar RSUExampleScenario.node[61].veinsmobility 	startTime 	366.1
scalar RSUExampleScenario.node[61].veinsmobility 	totalTime 	227.1
scalar RSUExampleScenario.node[61].veinsmobility 	stopTime 	593.3
scalar RSUExampleScenario.node[61].veinsmobility 	minSpeed 	0.25276687317737
scalar RSUExampleScenario.node[61].veinsmobility 	maxSpeed 	18.999680534236
scalar RSUExampleScenario.node[61].veinsmobility 	totalDistance 	3409.9374192556
scalar RSUExampleScenario.node[61].veinsmobility 	totalCO2Emission 	706.22042204891
scalar RSUExampleScenario.node[62].veinsmobility 	startTime 	372.1
scalar RSUExampleScenario.node[62].veinsmobility 	totalTime 	226.8
scalar RSUExampleScenario.node[62].veinsmobility 	stopTime 	599
scalar RSUExampleScenario.node[62].veinsmobility 	minSpeed 	0.24931323505938
scalar RSUExampleScenario.node[62].veinsmobility 	maxSpeed 	18.999819980138
scalar RSUExampleScenario.node[62].veinsmobility 	totalDistance 	3409.6264577853
scalar RSUExampleScenario.node[62].veinsmobility 	totalCO2Emission 	708.03864066699
scalar RSUExampleScenario.node[63].veinsmobility 	startTime 	378.1
scalar RSUExampleScenario.node[63].veinsmobility 	totalTime 	226.8
scalar RSUExampleScenario.node[63].veinsmobility 	stopTime 	605
scalar RSUExampleScenario.node[63].veinsmobility 	minSpeed 	0.25264256280754
scalar RSUExampleScenario.node[63].veinsmobility 	maxSpeed 	18.999878923101
scalar RSUExampleScenario.node[63].veinsmobility 	totalDistance 	3409.7697805869
scalar RSUExampleScenario.node[63].veinsmobility 	totalCO2Emission 	712.42350460483
scalar RSUExampleScenario.node[64].veinsmobility 	startTime 	384.1
scalar RSUExampleScenario.node[64].veinsmobility 	totalTime 	226.7
scalar RSUExampleScenario.node[64].veinsmobility 	stopTime 	610.9
scalar RSUExampleScenario.node[64].veinsmobility 	minSpeed 	0.25476111520384
scalar RSUExampleScenario.node[64].veinsmobility 	maxSpeed 	18.999470121989
scalar RSUExampleScenario.node[64].veinsmobility 	totalDistance 	3409.2798252355
scalar RSUExampleScenario.node[64].veinsmobility 	totalCO2Emission 	705.0050073944
scalar RSUExampleScenario.node[65].veinsmobility 	startTime 	390.1
scalar RSUExampleScenario.node[65].veinsmobility 	totalTime 	226.7
scalar RSUExampleScenario.node[65].veinsmobility 	stopTime 	616.9
scalar RSUExampleScenario.node[65].veinsmobility 	minSpeed 	0.25408151102974
scalar RSUExampleScenario.node[65].veinsmobility 	maxSpeed 	18.999860598471
scalar RSUExampleScenario.node[65].veinsmobility 	totalDistance 	3409.5879510355
scalar RSUExampleScenario.node[65].veinsmobility 	totalCO2Emission 	706.89268404637
scalar RSUExampleScenario.node[66].veinsmobility 	startTime 	396.1
scalar RSUExampleScenario.node[66].veinsmobility 	totalTime 	226.9
scalar RSUExampleScenario.node[66].veinsmobility 	stopTime 	623.1
scalar RSUExampleScenario.node[66].veinsmobility 	minSpeed 	0.24702234186721
scalar RSUExampleScenario.node[66].veinsmobility 	maxSpeed 	18.999826860293
scalar RSUExampleScenario.node[66].veinsmobility 	totalDistance 	3409.1115196092
scalar RSUExampleScenario.node[66].veinsmobility 	totalCO2Emission 	704.37449390814
scalar RSUExampleScenario.node[67].veinsmobility 	startTime 	402.1
scalar RSUExampleScenario.node[67].veinsmobility 	totalTime 	227.3
scalar RSUExampleScenario.node[67].veinsmobility 	stopTime 	629.5
scalar RSUExampleScenario.node[67].veinsmobility 	minSpeed 	0.25692694867868
scalar RSUExampleScenario.node[67].veinsmobility 	maxSpeed 	18.999683223849
scalar RSUExampleScenario.node[67].veinsmobility 	totalDistance 	3409.265609859
scalar RSUExampleScenario.node[67].veinsmobility 	totalCO2Emission 	705.75382682294
scalar RSUExampleScenario.node[68].veinsmobility 	startTime 	408.1
scalar RSUExampleScenario.node[68].veinsmobility 	totalTime 	226.9
scalar RSUExampleScenario.node[68].veinsmobility 	stopTime 	635.1
scalar RSUExampleScenario.node[68].veinsmobility 	minSpeed 	0.24700140327518
scalar RSUExampleScenario.node[68].veinsmobility 	maxSpeed 	18.999798226205
scalar RSUExampleScenario.node[68].veinsmobility 	totalDistance 	3409.5568423573
scalar RSUExampleScenario.node[68].veinsmobility 	totalCO2Emission 	701.27296996122
scalar RSUExampleScenario.node[69].veinsmobility 	startTime 	414.1
scalar RSUExampleScenario.node[69].veinsmobility 	totalTime 	226.6
scalar RSUExampleScenario.node[69].veinsmobility 	stopTime 	640.8
scalar RSUExampleScenario.node[69].veinsmobility 	minSpeed 	0.2543780176416
scalar RSUExampleScenario.node[69].veinsmobility 	maxSpeed 	18.999936956028
scalar RSUExampleScenario.node[69].veinsmobility 	totalDistance 	3409.5801270239
scalar RSUExampleScenario.node[69].veinsmobility 	totalCO2Emission 	705.16193174968
scalar RSUExampleScenario.node[70].veinsmobility 	startTime 	420.1
scalar RSUExampleScenario.node[70].veinsmobility 	totalTime 	227.1
scalar RSUExampleScenario.node[70].veinsmobility 	stopTime 	647.3
scalar RSUExampleScenario.node[70].veinsmobility 	minSpeed 	0.25216063071997
scalar RSUExampleScenario.node[70].veinsmobility 	maxSpeed 	18.999769277391
scalar RSUExampleScenario.node[70].veinsmobility 	totalDistance 	3409.4795038474
scalar RSUExampleScenario.node[70].veinsmobility 	totalCO2Emission 	704.96590144022
scalar RSUExampleScenario.node[71].veinsmobility 	startTime 	426.1
scalar RSUExampleScenario.node[71].veinsmobility 	totalTime 	226.7
scalar RSUExampleScenario.node[71].veinsmobility 	stopTime 	652.9
scalar RSUExampleScenario.node[71].veinsmobility 	minSpeed 	0.25807960120845
scalar RSUExampleScenario.node[71].veinsmobility 	maxSpeed 	18.999986160963
scalar RSUExampleScenario.node[71].veinsmobility 	totalDistance 	3409.4324064112
scalar RSUExampleScenario.node[71].veinsmobility 	totalCO2Emission 	705.17882970133
scalar RSUExampleScenario.node[72].veinsmobility 	startTime 	432.1
scalar RSUExampleScenario.node[72].veinsmobility 	totalTime 	227.1
scalar RSUExampleScenario.node[72].veinsmobility 	stopTime 	659.3
scalar RSUExampleScenario.node[72].veinsmobility 	minSpeed 	0.25633295369172
scalar RSUExampleScenario.node[72].veinsmobility 	maxSpeed 	18.999673355245
scalar RSUExampleScenario.node[72].veinsmobility 	totalDistance 	3409.2104232975
scalar RSUExampleScenario.node[72].veinsmobility 	totalCO2Emission 	707.22588418726
scalar RSUExampleScenario.node[73].veinsmobility 	startTime 	438.1
scalar RSUExampleScenario.node[73].veinsmobility 	totalTime 	226.6
scalar RSUExampleScenario.node[73].veinsmobility 	stopTime 	664.8
scalar RSUExampleScenario.node[73].veinsmobility 	minSpeed 	0.2524067548262
scalar RSUExampleScenario.node[73].veinsmobility 	maxSpeed 	18.999963296528
scalar RSUExampleScenario.node[73].veinsmobility 	totalDistance 	3409.9139726922
scalar RSUExampleScenario.node[73].veinsmobility 	totalCO2Emission 	706.43567851454
scalar RSUExampleScenario.node[74].veinsmobility 	startTime 	444.1
scalar RSUExampleScenario.node[74].veinsmobility 	totalTime 	226.7
scalar RSUExampleScenario.node[74].veinsmobility 	stopTime 	670.9
scalar RSUExampleScenario.node[74].veinsmobility 	minSpeed 	0.2594144408938
scalar RSUExampleScenario.node[74].veinsmobility 	maxSpeed 	18.9999571106
scalar RSUExampleScenario.node[74].veinsmobility 	totalDistance 	3409.3114523318
scalar RSUExampleScenario.node[74].veinsmobility 	totalCO2Emission 	704.43148462778
scalar RSUExampleScenario.node[75].veinsmobility 	startTime 	450.1
scalar RSUExampleScenario.node[75].veinsmobility 	totalTime 	227
scalar RSUExampleScenario.node[75].veinsmobility 	stopTime 	677.2
scalar RSUExampleScenario.node[75].veinsmobility 	minSpeed 	0.24839563780371
scalar RSUExampleScenario.node[75].veinsmobility 	maxSpeed 	18.99983661188
scalar RSUExampleScenario.node[75].veinsmobility 	totalDistance 	3409.5235260579
scalar RSUExampleScenario.node[75].veinsmobility 	totalCO2Emission 	708.26750600198
scalar RSUExampleScenario.node[76].veinsmobility 	startTime 	456.1
scalar RSUExampleScenario.node[76].veinsmobility 	totalTime 	226.6
scalar RSUExampleScenario.node[76].veinsmobility 	stopTime 	682.8
scalar RSUExampleScenario.node[76].veinsmobility 	minSpeed 	0.24993240453373
scalar RSUExampleScenario.node[76].veinsmobility 	maxSpeed 	18.999846048197
scalar RSUExampleScenario.node[76].veinsmobility 	totalDistance 	3409.4887382196
scalar RSUExampleScenario.node[76].veinsmobility 	totalCO2Emission 	704.19762312919
scalar RSUExampleScenario.node[77].veinsmobility 	startTime 	462.1
scalar RSUExampleScenario.node[77].veinsmobility 	totalTime 	226.9
scalar RSUExampleScenario.node[77].veinsmobility 	stopTime 	689.1
scalar RSUExampleScenario.node[77].veinsmobility 	minSpeed 	0.2584457916047
scalar RSUExampleScenario.node[77].veinsmobility 	maxSpeed 	18.999976366577
scalar RSUExampleScenario.node[77].veinsmobility 	totalDistance 	3409.6453126289
scalar RSUExampleScenario.node[77].veinsmobility 	totalCO2Emission 	707.62819832085
scalar RSUExampleScenario.node[78].veinsmobility 	startTime 	468.1
scalar RSUExampleScenario.node[78].veinsmobility 	totalTime 	226.8
scalar RSUExampleScenario.node[78].veinsmobility 	stopTime 	695
scalar RSUExampleScenario.node[78].veinsmobility 	minSpeed 	0.25859516936773
scalar RSUExampleScenario.node[78].veinsmobility 	maxSpeed 	18.999849029533
scalar RSUExampleScenario.node[78].veinsmobility 	totalDistance 	3409.3341106871
scalar RSUExampleScenario.node[78].veinsmobility 	totalCO2Emission 	708.54707775665
scalar RSUExampleScenario.node[79].veinsmobility 	startTime 	474.1
scalar RSUExampleScenario.node[79].veinsmobility 	totalTime 	227.4
scalar RSUExampleScenario.node[79].veinsmobility 	stopTime 	701.6
scalar RSUExampleScenario.node[79].veinsmobility 	minSpeed 	0.25754112564283
scalar RSUExampleScenario.node[79].veinsmobility 	maxSpeed 	18.999957775073
scalar RSUExampleScenario.node[79].veinsmobility 	totalDistance 	3409.566000201
scalar RSUExampleScenario.node[79].veinsmobility 	totalCO2Emission 	709.53485755456
scalar RSUExampleScenario.node[80].veinsmobility 	startTime 	480.1
scalar RSUExampleScenario.node[80].veinsmobility 	totalTime 	227.1
scalar RSUExampleScenario.node[80].veinsmobility 	stopTime 	707.3
scalar RSUExampleScenario.node[80].veinsmobility 	minSpeed 	0.25778521100059
scalar RSUExampleScenario.node[80].veinsmobility 	maxSpeed 	18.999971534959
scalar RSUExampleScenario.node[80].veinsmobility 	totalDistance 	3409.9134868506
scalar RSUExampleScenario.node[80].veinsmobility 	totalCO2Emission 	708.23798978792
scalar RSUExampleScenario.node[81].veinsmobility 	startTime 	486.1
scalar RSUExampleScenario.node[81].veinsmobility 	totalTime 	227.1
scalar RSUExampleScenario.node[81].veinsmobility 	stopTime 	713.3
scalar RSUExampleScenario.node[81].veinsmobility 	minSpeed 	0.25145458950521
scalar RSUExampleScenario.node[81].veinsmobility 	maxSpeed 	18.999904112844
scalar RSUExampleScenario.node[81].veinsmobility 	totalDistance 	3409.2830728076
scalar RSUExampleScenario.node[81].veinsmobility 	totalCO2Emission 	708.73964954504
scalar RSUExampleScenario.node[82].veinsmobility 	startTime 	492.1
scalar RSUExampleScenario.node[82].veinsmobility 	totalTime 	226.9
scalar RSUExampleScenario.node[82].veinsmobility 	stopTime 	719.1
scalar RSUExampleScenario.node[82].veinsmobility 	minSpeed 	0.24785779993003
scalar RSUExampleScenario.node[82].veinsmobility 	maxSpeed 	18.999923232009
scalar RSUExampleScenario.node[82].veinsmobility 	totalDistance 	3409.165367122
scalar RSUExampleScenario.node[82].veinsmobility 	totalCO2Emission 	711.83082350008
scalar RSUExampleScenario.node[83].veinsmobility 	startTime 	498.1
scalar RSUExampleScenario.node[83].veinsmobility 	totalTime 	226.6
scalar RSUExampleScenario.node[83].veinsmobility 	stopTime 	724.8
scalar RSUExampleScenario.node[83].veinsmobility 	minSpeed 	0.25194752958929
scalar RSUExampleScenario.node[83].veinsmobility 	maxSpeed 	18.999324971177
scalar RSUExampleScenario.node[83].veinsmobility 	totalDistance 	3409.137010394
scalar RSUExampleScenario.node[83].veinsmobility 	totalCO2Emission 	710.41545927651
scalar RSUExampleScenario.node[84].veinsmobility 	startTime 	504.1
scalar RSUExampleScenario.node[84].veinsmobility 	totalTime 	226.9
scalar RSUExampleScenario.node[84].veinsmobility 	stopTime 	731.1
scalar RSUExampleScenario.node[84].veinsmobility 	minSpeed 	0.2523539814949
scalar RSUExampleScenario.node[84].veinsmobility 	maxSpeed 	18.999738922054
scalar RSUExampleScenario.node[84].veinsmobility 	totalDistance 	3409.7632747541
scalar RSUExampleScenario.node[84].veinsmobility 	totalCO2Emission 	710.04831461912
scalar RSUExampleScenario.node[85].veinsmobility 	startTime 	510.1
scalar RSUExampleScenario.node[85].veinsmobility 	totalTime 	226.9
scalar RSUExampleScenario.node[85].veinsmobility 	stopTime 	737.1
scalar RSUExampleScenario.node[85].veinsmobility 	minSpeed 	0.25718073650822
scalar RSUExampleScenario.node[85].veinsmobility 	maxSpeed 	18.999803781712
scalar RSUExampleScenario.node[85].veinsmobility 	totalDistance 	3409.5732227241
scalar RSUExampleScenario.node[85].veinsmobility 	totalCO2Emission 	704.90938766371
scalar RSUExampleScenario.node[86].veinsmobility 	startTime 	516.1
scalar RSUExampleScenario.node[86].veinsmobility 	totalTime 	227.1
scalar RSUExampleScenario.node[86].veinsmobility 	stopTime 	743.3
scalar RSUExampleScenario.node[86].veinsmobility 	minSpeed 	0.25771816713829
scalar RSUExampleScenario.node[86].veinsmobility 	maxSpeed 	18.999902984514
scalar RSUExampleScenario.node[86].veinsmobility 	totalDistance 	3409.1456830931
scalar RSUExampleScenario.node[86].veinsmobility 	totalCO2Emission 	705.62736417717
scalar RSUExampleScenario.node[87].veinsmobility 	startTime 	522.1
scalar RSUExampleScenario.node[87].veinsmobility 	totalTime 	226.8
scalar RSUExampleScenario.node[87].veinsmobility 	stopTime 	749
scalar RSUExampleScenario.node[87].veinsmobility 	minSpeed 	0.25692628993234
scalar RSUExampleScenario.node[87].veinsmobility 	maxSpeed 	18.999853751489
scalar RSUExampleScenario.node[87].veinsmobility 	totalDistance 	3409.6234638043
scalar RSUExampleScenario.node[87].veinsmobility 	totalCO2Emission 	710.80505068921
scalar RSUExampleScenario.node[88].veinsmobility 	startTime 	528.1
scalar RSUExampleScenario.node[88].veinsmobility 	totalTime 	227
scalar RSUExampleScenario.node[88].veinsmobility 	stopTime 	755.2
scalar RSUExampleScenario.node[88].veinsmobility 	minSpeed 	0.25812928128196
scalar RSUExampleScenario.node[88].veinsmobility 	maxSpeed 	18.99927846563
scalar RSUExampleScenario.node[88].veinsmobility 	totalDistance 	3409.3718346631
scalar RSUExampleScenario.node[88].veinsmobility 	totalCO2Emission 	708.53409233198
scalar RSUExampleScenario.node[89].veinsmobility 	startTime 	534.1
scalar RSUExampleScenario.node[89].veinsmobility 	totalTime 	226.7
scalar RSUExampleScenario.node[89].veinsmobility 	stopTime 	760.9
scalar RSUExampleScenario.node[89].veinsmobility 	minSpeed 	0.25830363479885
scalar RSUExampleScenario.node[89].veinsmobility 	maxSpeed 	18.99917417814
scalar RSUExampleScenario.node[89].veinsmobility 	totalDistance 	3409.4604053814
scalar RSUExampleScenario.node[89].veinsmobility 	totalCO2Emission 	707.22588507811
scalar RSUExampleScenario.node[90].veinsmobility 	startTime 	540.1
scalar RSUExampleScenario.node[90].veinsmobility 	totalTime 	226.7
scalar RSUExampleScenario.node[90].veinsmobility 	stopTime 	766.9
scalar RSUExampleScenario.node[90].veinsmobility 	minSpeed 	0.25752748925332
scalar RSUExampleScenario.node[90].veinsmobility 	maxSpeed 	18.999848786723
scalar RSUExampleScenario.node[90].veinsmobility 	totalDistance 	3408.9595114921
scalar RSUExampleScenario.node[90].veinsmobility 	totalCO2Emission 	708.55964809598
scalar RSUExampleScenario.node[91].veinsmobility 	startTime 	546.1
scalar RSUExampleScenario.node[91].veinsmobility 	totalTime 	226.9
scalar RSUExampleScenario.node[91].veinsmobility 	stopTime 	773.1
scalar RSUExampleScenario.node[91].veinsmobility 	minSpeed 	0.24816448618541
scalar RSUExampleScenario.node[91].veinsmobility 	maxSpeed 	18.999774533517
scalar RSUExampleScenario.node[91].veinsmobility 	totalDistance 	3409.3130495537
scalar RSUExampleScenario.node[91].veinsmobility 	totalCO2Emission 	706.72738603381
scalar RSUExampleScenario.node[92].veinsmobility 	startTime 	552.1
scalar RSUExampleScenario.node[92].veinsmobility 	totalTime 	227
scalar RSUExampleScenario.node[92].veinsmobility 	stopTime 	779.2
scalar RSUExampleScenario.node[92].veinsmobility 	minSpeed 	0.25836072423868
scalar RSUExampleScenario.node[92].veinsmobility 	maxSpeed 	18.999611254695
scalar RSUExampleScenario.node[92].veinsmobility 	totalDistance 	3409.310798234
scalar RSUExampleScenario.node[92].veinsmobility 	totalCO2Emission 	705.60385051509
scalar RSUExampleScenario.node[93].veinsmobility 	startTime 	558.1
scalar RSUExampleScenario.node[93].veinsmobility 	totalTime 	227
scalar RSUExampleScenario.node[93].veinsmobility 	stopTime 	785.2
scalar RSUExampleScenario.node[93].veinsmobility 	minSpeed 	0.25112154986989
scalar RSUExampleScenario.node[93].veinsmobility 	maxSpeed 	18.999914414582
scalar RSUExampleScenario.node[93].veinsmobility 	totalDistance 	3409.461586353
scalar RSUExampleScenario.node[93].veinsmobility 	totalCO2Emission 	702.96760716245
scalar RSUExampleScenario.node[94].veinsmobility 	startTime 	564.1
scalar RSUExampleScenario.node[94].veinsmobility 	totalTime 	227
scalar RSUExampleScenario.node[94].veinsmobility 	stopTime 	791.2
scalar RSUExampleScenario.node[94].veinsmobility 	minSpeed 	0.24862440691097
scalar RSUExampleScenario.node[94].veinsmobility 	maxSpeed 	18.999579661458
scalar RSUExampleScenario.node[94].veinsmobility 	totalDistance 	3409.5027040143
scalar RSUExampleScenario.node[94].veinsmobility 	totalCO2Emission 	707.59826100968
scalar RSUExampleScenario.node[95].veinsmobility 	startTime 	570.1
scalar RSUExampleScenario.node[95].veinsmobility 	totalTime 	226.9
scalar RSUExampleScenario.node[95].veinsmobility 	stopTime 	797.1
scalar RSUExampleScenario.node[95].veinsmobility 	minSpeed 	0.25603319145553
scalar RSUExampleScenario.node[95].veinsmobility 	maxSpeed 	18.999749046725
scalar RSUExampleScenario.node[95].veinsmobility 	totalDistance 	3409.557529267
scalar RSUExampleScenario.node[95].veinsmobility 	totalCO2Emission 	702.03687258996
scalar RSUExampleScenario.node[96].veinsmobility 	startTime 	576.1
scalar RSUExampleScenario.node[96].veinsmobility 	totalTime 	227.1
scalar RSUExampleScenario.node[96].veinsmobility 	stopTime 	803.3
scalar RSUExampleScenario.node[96].veinsmobility 	minSpeed 	0.24858584315097
scalar RSUExampleScenario.node[96].veinsmobility 	maxSpeed 	18.999210237206
scalar RSUExampleScenario.node[96].veinsmobility 	totalDistance 	3409.3335729836
scalar RSUExampleScenario.node[96].veinsmobility 	totalCO2Emission 	707.05344822252
scalar RSUExampleScenario.node[97].veinsmobility 	startTime 	582.1
scalar RSUExampleScenario.node[97].veinsmobility 	totalTime 	226.7
scalar RSUExampleScenario.node[97].veinsmobility 	stopTime 	808.9
scalar RSUExampleScenario.node[97].veinsmobility 	minSpeed 	0.2502737221024
scalar RSUExampleScenario.node[97].veinsmobility 	maxSpeed 	18.999856373544
scalar RSUExampleScenario.node[97].veinsmobility 	totalDistance 	3409.5708742739
scalar RSUExampleScenario.node[97].veinsmobility 	totalCO2Emission 	704.27425756654
scalar RSUExampleScenario.node[98].veinsmobility 	startTime 	588.1
scalar RSUExampleScenario.node[98].veinsmobility 	totalTime 	226.9
scalar RSUExampleScenario.node[98].veinsmobility 	stopTime 	815.1
scalar RSUExampleScenario.node[98].veinsmobility 	minSpeed 	0.25503731912374
scalar RSUExampleScenario.node[98].veinsmobility 	maxSpeed 	18.999932758373
scalar RSUExampleScenario.node[98].veinsmobility 	totalDistance 	3409.4677636454
scalar RSUExampleScenario.node[98].veinsmobility 	totalCO2Emission 	707.39486957494
scalar RSUExampleScenario.node[99].veinsmobility 	startTime 	594.1
scalar RSUExampleScenario.node[99].veinsmobility 	totalTime 	226.8
scalar RSUExampleScenario.node[99].veinsmobility 	stopTime 	821
scalar RSUExampleScenario.node[99].veinsmobility 	minSpeed 	0.254435371781
scalar RSUExampleScenario.node[99].veinsmobility 	maxSpeed 	18.999676393999
scalar RSUExampleScenario.node[99].veinsmobility 	totalDistance 	3409.3960024271
scalar RSUExampleScenario.node[99].veinsmobility 	totalCO2Emission 	709.66013714843
scalar RSUExampleScenario.node[100].veinsmobility 	startTime 	600.1
scalar RSUExampleScenario.node[100].veinsmobility 	totalTime 	226.9
scalar RSUExampleScenario.node[100].veinsmobility 	stopTime 	827.1
scalar RSUExampleScenario.node[100].veinsmobility 	minSpeed 	0.25518681063992
scalar RSUExampleScenario.node[100].veinsmobility 	maxSpeed 	18.999912595688
scalar RSUExampleScenario.node[100].veinsmobility 	totalDistance 	3409.6545086724
scalar RSUExampleScenario.node[100].veinsmobility 	totalCO2Emission 	707.69686371328
scalar RSUExampleScenario.node[101].veinsmobility 	startTime 	606.1
scalar RSUExampleScenario.node[101].veinsmobility 	totalTime 	226.9
scalar RSUExampleScenario.node[101].veinsmobility 	stopTime 	833.1
scalar RSUExampleScenario.node[101].veinsmobility 	minSpeed 	0.2492493894333
scalar RSUExampleScenario.node[101].veinsmobility 	maxSpeed 	18.999912441443
scalar RSUExampleScenario.node[101].veinsmobility 	totalDistance 	3409.9031461647
scalar RSUExampleScenario.node[101].veinsmobility 	totalCO2Emission 	705.5796047809
scalar RSUExampleScenario.node[102].veinsmobility 	startTime 	612.1
scalar RSUExampleScenario.node[102].veinsmobility 	totalTime 	226.6
scalar RSUExampleScenario.node[102].veinsmobility 	stopTime 	838.8
scalar RSUExampleScenario.node[102].veinsmobility 	minSpeed 	0.24714451504499
scalar RSUExampleScenario.node[102].veinsmobility 	maxSpeed 	18.99982189486
scalar RSUExampleScenario.node[102].veinsmobility 	totalDistance 	3409.4014708458
scalar RSUExampleScenario.node[102].veinsmobility 	totalCO2Emission 	709.28104024908
scalar RSUExampleScenario.node[103].veinsmobility 	startTime 	618.1
scalar RSUExampleScenario.node[103].veinsmobility 	totalTime 	226.9
scalar RSUExampleScenario.node[103].veinsmobility 	stopTime 	845.1
scalar RSUExampleScenario.node[103].veinsmobility 	minSpeed 	0.25583810940036
scalar RSUExampleScenario.node[103].veinsmobility 	maxSpeed 	18.99972386119
scalar RSUExampleScenario.node[103].veinsmobility 	totalDistance 	3409.7224180595
scalar RSUExampleScenario.node[103].veinsmobility 	totalCO2Emission 	711.3364265529
scalar RSUExampleScenario.node[104].veinsmobility 	startTime 	624.1
scalar RSUExampleScenario.node[104].veinsmobility 	totalTime 	226.8
scalar RSUExampleScenario.node[104].veinsmobility 	stopTime 	851
scalar RSUExampleScenario.node[104].veinsmobility 	minSpeed 	0.25767186042247
scalar RSUExampleScenario.node[104].veinsmobility 	maxSpeed 	18.999996446448
scalar RSUExampleScenario.node[104].veinsmobility 	totalDistance 	3409.5426097073
scalar RSUExampleScenario.node[104].veinsmobility 	totalCO2Emission 	709.6588576344
scalar RSUExampleScenario.node[105].veinsmobility 	startTime 	630.1
scalar RSUExampleScenario.node[105].veinsmobility 	totalTime 	226.9
scalar RSUExampleScenario.node[105].veinsmobility 	stopTime 	857.1
scalar RSUExampleScenario.node[105].veinsmobility 	minSpeed 	0.25205179943633
scalar RSUExampleScenario.node[105].veinsmobility 	maxSpeed 	18.999964572475
scalar RSUExampleScenario.node[105].veinsmobility 	totalDistance 	3409.6338766189
scalar RSUExampleScenario.node[105].veinsmobility 	totalCO2Emission 	710.099303919
scalar RSUExampleScenario.node[106].veinsmobility 	startTime 	636.1
scalar RSUExampleScenario.node[106].veinsmobility 	totalTime 	226.8
scalar RSUExampleScenario.node[106].veinsmobility 	stopTime 	863
scalar RSUExampleScenario.node[106].veinsmobility 	minSpeed 	0.25610803480214
scalar RSUExampleScenario.node[106].veinsmobility 	maxSpeed 	18.99973211091
scalar RSUExampleScenario.node[106].veinsmobility 	totalDistance 	3409.2062182857
scalar RSUExampleScenario.node[106].veinsmobility 	totalCO2Emission 	703.25663154546
scalar RSUExampleScenario.node[107].veinsmobility 	startTime 	642.1
scalar RSUExampleScenario.node[107].veinsmobility 	totalTime 	227
scalar RSUExampleScenario.node[107].veinsmobility 	stopTime 	869.2
scalar RSUExampleScenario.node[107].veinsmobility 	minSpeed 	0.25788765833364
scalar RSUExampleScenario.node[107].veinsmobility 	maxSpeed 	18.999557343905
scalar RSUExampleScenario.node[107].veinsmobility 	totalDistance 	3409.2359482967
scalar RSUExampleScenario.node[107].veinsmobility 	totalCO2Emission 	707.29201592598
scalar RSUExampleScenario.node[108].veinsmobility 	startTime 	648.1
scalar RSUExampleScenario.node[108].veinsmobility 	totalTime 	226.6
scalar RSUExampleScenario.node[108].veinsmobility 	stopTime 	874.8
scalar RSUExampleScenario.node[108].veinsmobility 	minSpeed 	0.2489239765096
scalar RSUExampleScenario.node[108].veinsmobility 	maxSpeed 	18.999956920457
scalar RSUExampleScenario.node[108].veinsmobility 	totalDistance 	3409.5517194568
scalar RSUExampleScenario.node[108].veinsmobility 	totalCO2Emission 	708.78567423015
scalar RSUExampleScenario.node[109].veinsmobility 	startTime 	654.1
scalar RSUExampleScenario.node[109].veinsmobility 	totalTime 	227.1
scalar RSUExampleScenario.node[109].veinsmobility 	stopTime 	881.3
scalar RSUExampleScenario.node[109].veinsmobility 	minSpeed 	0.25064666182315
scalar RSUExampleScenario.node[109].veinsmobility 	maxSpeed 	18.999856963286
scalar RSUExampleScenario.node[109].veinsmobility 	totalDistance 	3410.0667802685
scalar RSUExampleScenario.node[109].veinsmobility 	totalCO2Emission 	707.99856542483
scalar RSUExampleScenario.node[110].veinsmobility 	startTime 	660.1
scalar RSUExampleScenario.node[110].veinsmobility 	totalTime 	226.9
scalar RSUExampleScenario.node[110].veinsmobility 	stopTime 	887.1
scalar RSUExampleScenario.node[110].veinsmobility 	minSpeed 	0.25003738656524
scalar RSUExampleScenario.node[110].veinsmobility 	maxSpeed 	18.999863555774
scalar RSUExampleScenario.node[110].veinsmobility 	totalDistance 	3409.8763301949
scalar RSUExampleScenario.node[110].veinsmobility 	totalCO2Emission 	702.93248624343
scalar RSUExampleScenario.node[111].veinsmobility 	startTime 	666.1
scalar RSUExampleScenario.node[111].veinsmobility 	totalTime 	227
scalar RSUExampleScenario.node[111].veinsmobility 	stopTime 	893.2
scalar RSUExampleScenario.node[111].veinsmobility 	minSpeed 	0.25588053273084
scalar RSUExampleScenario.node[111].veinsmobility 	maxSpeed 	18.999879173115
scalar RSUExampleScenario.node[111].veinsmobility 	totalDistance 	3409.4797061161
scalar RSUExampleScenario.node[111].veinsmobility 	totalCO2Emission 	709.84411558811
scalar RSUExampleScenario.node[112].veinsmobility 	startTime 	672.1
scalar RSUExampleScenario.node[112].veinsmobility 	totalTime 	227.2
scalar RSUExampleScenario.node[112].veinsmobility 	stopTime 	899.4
scalar RSUExampleScenario.node[112].veinsmobility 	minSpeed 	0.25702212318429
scalar RSUExampleScenario.node[112].veinsmobility 	maxSpeed 	18.999886307127
scalar RSUExampleScenario.node[112].veinsmobility 	totalDistance 	3409.6831144601
scalar RSUExampleScenario.node[112].veinsmobility 	totalCO2Emission 	706.31568253743
scalar RSUExampleScenario.node[113].veinsmobility 	startTime 	678.1
scalar RSUExampleScenario.node[113].veinsmobility 	totalTime 	227
scalar RSUExampleScenario.node[113].veinsmobility 	stopTime 	905.2
scalar RSUExampleScenario.node[113].veinsmobility 	minSpeed 	0.25963808775926
scalar RSUExampleScenario.node[113].veinsmobility 	maxSpeed 	18.999838198377
scalar RSUExampleScenario.node[113].veinsmobility 	totalDistance 	3409.4003472371
scalar RSUExampleScenario.node[113].veinsmobility 	totalCO2Emission 	699.24698108909
scalar RSUExampleScenario.node[114].veinsmobility 	startTime 	684.1
scalar RSUExampleScenario.node[114].veinsmobility 	totalTime 	226.7
scalar RSUExampleScenario.node[114].veinsmobility 	stopTime 	910.9
scalar RSUExampleScenario.node[114].veinsmobility 	minSpeed 	0.2479834727284
scalar RSUExampleScenario.node[114].veinsmobility 	maxSpeed 	18.999998383871
scalar RSUExampleScenario.node[114].veinsmobility 	totalDistance 	3409.702248597
scalar RSUExampleScenario.node[114].veinsmobility 	totalCO2Emission 	703.43952049617
scalar RSUExampleScenario.node[115].veinsmobility 	startTime 	690.1
scalar RSUExampleScenario.node[115].veinsmobility 	totalTime 	226.8
scalar RSUExampleScenario.node[115].veinsmobility 	stopTime 	917
scalar RSUExampleScenario.node[115].veinsmobility 	minSpeed 	0.25951206946699
scalar RSUExampleScenario.node[115].veinsmobility 	maxSpeed 	18.999986301195
scalar RSUExampleScenario.node[115].veinsmobility 	totalDistance 	3409.1632901416
scalar RSUExampleScenario.node[115].veinsmobility 	totalCO2Emission 	704.71075018769
scalar RSUExampleScenario.node[116].veinsmobility 	startTime 	696.1
scalar RSUExampleScenario.node[116].veinsmobility 	totalTime 	226.9
scalar RSUExampleScenario.node[116].veinsmobility 	stopTime 	923.1
scalar RSUExampleScenario.node[116].veinsmobility 	minSpeed 	0.25674685745989
scalar RSUExampleScenario.node[116].veinsmobility 	maxSpeed 	18.999689777957
scalar RSUExampleScenario.node[116].veinsmobility 	totalDistance 	3409.6118947649
scalar RSUExampleScenario.node[116].veinsmobility 	totalCO2Emission 	707.33356617571
scalar RSUExampleScenario.node[117].veinsmobility 	startTime 	702.1
scalar RSUExampleScenario.node[117].veinsmobility 	totalTime 	226.9
scalar RSUExampleScenario.node[117].veinsmobility 	stopTime 	929.1
scalar RSUExampleScenario.node[117].veinsmobility 	minSpeed 	0.25537989956955
scalar RSUExampleScenario.node[117].veinsmobility 	maxSpeed 	18.999921095362
scalar RSUExampleScenario.node[117].veinsmobility 	totalDistance 	3409.8040146204
scalar RSUExampleScenario.node[117].veinsmobility 	totalCO2Emission 	707.25622198291
scalar RSUExampleScenario.node[118].veinsmobility 	startTime 	708.1
scalar RSUExampleScenario.node[118].veinsmobility 	totalTime 	226.9
scalar RSUExampleScenario.node[118].veinsmobility 	stopTime 	935.1
scalar RSUExampleScenario.node[118].veinsmobility 	minSpeed 	0.25487169164559
scalar RSUExampleScenario.node[118].veinsmobility 	maxSpeed 	18.999801326222
scalar RSUExampleScenario.node[118].veinsmobility 	totalDistance 	3409.484477988
scalar RSUExampleScenario.node[118].veinsmobility 	totalCO2Emission 	709.6684165226
scalar RSUExampleScenario.node[119].veinsmobility 	startTime 	714.1
scalar RSUExampleScenario.node[119].veinsmobility 	totalTime 	226.7
scalar RSUExampleScenario.node[119].veinsmobility 	stopTime 	940.9
scalar RSUExampleScenario.node[119].veinsmobility 	minSpeed 	0.25800873374613
scalar RSUExampleScenario.node[119].veinsmobility 	maxSpeed 	18.99954630384
scalar RSUExampleScenario.node[119].veinsmobility 	totalDistance 	3409.6379438007
scalar RSUExampleScenario.node[119].veinsmobility 	totalCO2Emission 	704.61954995902
scalar RSUExampleScenario.node[120].veinsmobility 	startTime 	720.1
scalar RSUExampleScenario.node[120].veinsmobility 	totalTime 	226.9
scalar RSUExampleScenario.node[120].veinsmobility 	stopTime 	947.1
scalar RSUExampleScenario.node[120].veinsmobility 	minSpeed 	0.25389127042331
scalar RSUExampleScenario.node[120].veinsmobility 	maxSpeed 	18.999103579794
scalar RSUExampleScenario.node[120].veinsmobility 	totalDistance 	3409.3084508394
scalar RSUExampleScenario.node[120].veinsmobility 	totalCO2Emission 	703.44400346833
scalar RSUExampleScenario.node[121].veinsmobility 	startTime 	726.1
scalar RSUExampleScenario.node[121].veinsmobility 	totalTime 	226.9
scalar RSUExampleScenario.node[121].veinsmobility 	stopTime 	953.1
scalar RSUExampleScenario.node[121].veinsmobility 	minSpeed 	0.25058529248741
scalar RSUExampleScenario.node[121].veinsmobility 	maxSpeed 	18.99990255716
scalar RSUExampleScenario.node[121].veinsmobility 	totalDistance 	3409.9390899522
scalar RSUExampleScenario.node[121].veinsmobility 	totalCO2Emission 	711.30094933104
scalar RSUExampleScenario.node[122].veinsmobility 	startTime 	732.1
scalar RSUExampleScenario.node[122].veinsmobility 	totalTime 	226.8
scalar RSUExampleScenario.node[122].veinsmobility 	stopTime 	959
scalar RSUExampleScenario.node[122].veinsmobility 	minSpeed 	0.25086579480604
scalar RSUExampleScenario.node[122].veinsmobility 	maxSpeed 	18.999999325357
scalar RSUExampleScenario.node[122].veinsmobility 	totalDistance 	3409.6573316765
scalar RSUExampleScenario.node[122].veinsmobility 	totalCO2Emission 	706.90312081531
scalar RSUExampleScenario.node[123].veinsmobility 	startTime 	738.1
scalar RSUExampleScenario.node[123].veinsmobility 	totalTime 	227.2
scalar RSUExampleScenario.node[123].veinsmobility 	stopTime 	965.4
scalar RSUExampleScenario.node[123].veinsmobility 	minSpeed 	0.25160120483045
scalar RSUExampleScenario.node[123].veinsmobility 	maxSpeed 	18.99984320343
scalar RSUExampleScenario.node[123].veinsmobility 	totalDistance 	3410.0213061498
scalar RSUExampleScenario.node[123].veinsmobility 	totalCO2Emission 	713.45355100799
scalar RSUExampleScenario.node[124].veinsmobility 	startTime 	744.1
scalar RSUExampleScenario.node[124].veinsmobility 	totalTime 	226.7
scalar RSUExampleScenario.node[124].veinsmobility 	stopTime 	970.9
scalar RSUExampleScenario.node[124].veinsmobility 	minSpeed 	0.25236544508208
scalar RSUExampleScenario.node[124].veinsmobility 	maxSpeed 	18.999194090387
scalar RSUExampleScenario.node[124].veinsmobility 	totalDistance 	3409.4399404445
scalar RSUExampleScenario.node[124].veinsmobility 	totalCO2Emission 	710.2473275131
scalar RSUExampleScenario.node[125].veinsmobility 	startTime 	750.1
scalar RSUExampleScenario.node[125].veinsmobility 	totalTime 	227
scalar RSUExampleScenario.node[125].veinsmobility 	stopTime 	977.2
scalar RSUExampleScenario.node[125].veinsmobility 	minSpeed 	0.2595030356755
scalar RSUExampleScenario.node[125].veinsmobility 	maxSpeed 	18.999965380752
scalar RSUExampleScenario.node[125].veinsmobility 	totalDistance 	3409.2859384923
scalar RSUExampleScenario.node[125].veinsmobility 	totalCO2Emission 	706.5459319616
scalar RSUExampleScenario.node[126].veinsmobility 	startTime 	756.1
scalar RSUExampleScenario.node[126].veinsmobility 	totalTime 	227
scalar RSUExampleScenario.node[126].veinsmobility 	stopTime 	983.2
scalar RSUExampleScenario.node[126].veinsmobility 	minSpeed 	0.25585799706378
scalar RSUExampleScenario.node[126].veinsmobility 	maxSpeed 	18.999933876321
scalar RSUExampleScenario.node[126].veinsmobility 	totalDistance 	3409.0898882819
scalar RSUExampleScenario.node[126].veinsmobility 	totalCO2Emission 	708.32857435854
scalar RSUExampleScenario.node[127].veinsmobility 	startTime 	762.1
scalar RSUExampleScenario.node[127].veinsmobility 	totalTime 	227.1
scalar RSUExampleScenario.node[127].veinsmobility 	stopTime 	989.3
scalar RSUExampleScenario.node[127].veinsmobility 	minSpeed 	0.25407958308933
scalar RSUExampleScenario.node[127].veinsmobility 	maxSpeed 	18.999636304569
scalar RSUExampleScenario.node[127].veinsmobility 	totalDistance 	3409.9355580035
scalar RSUExampleScenario.node[127].veinsmobility 	totalCO2Emission 	708.21962167129
scalar RSUExampleScenario.node[128].veinsmobility 	startTime 	768.1
scalar RSUExampleScenario.node[128].veinsmobility 	totalTime 	226.8
scalar RSUExampleScenario.node[128].veinsmobility 	stopTime 	995
scalar RSUExampleScenario.node[128].veinsmobility 	minSpeed 	0.25509876922355
scalar RSUExampleScenario.node[128].veinsmobility 	maxSpeed 	18.999440702114
scalar RSUExampleScenario.node[128].veinsmobility 	totalDistance 	3409.7171253505
scalar RSUExampleScenario.node[128].veinsmobility 	totalCO2Emission 	705.23783093631
scalar RSUExampleScenario.node[129].veinsmobility 	startTime 	774.1
scalar RSUExampleScenario.node[129].veinsmobility 	totalTime 	227.1
scalar RSUExampleScenario.node[129].veinsmobility 	stopTime 	1001.3
scalar RSUExampleScenario.node[129].veinsmobility 	minSpeed 	0.25208767031436
scalar RSUExampleScenario.node[129].veinsmobility 	maxSpeed 	18.999961707701
scalar RSUExampleScenario.node[129].veinsmobility 	totalDistance 	3409.445531126
scalar RSUExampleScenario.node[129].veinsmobility 	totalCO2Emission 	705.39415316469
scalar RSUExampleScenario.node[130].veinsmobility 	startTime 	780.1
scalar RSUExampleScenario.node[130].veinsmobility 	totalTime 	226.9
scalar RSUExampleScenario.node[130].veinsmobility 	stopTime 	1007.1
scalar RSUExampleScenario.node[130].veinsmobility 	minSpeed 	0.25494125187304
scalar RSUExampleScenario.node[130].veinsmobility 	maxSpeed 	18.999911953341
scalar RSUExampleScenario.node[130].veinsmobility 	totalDistance 	3409.1160595308
scalar RSUExampleScenario.node[130].veinsmobility 	totalCO2Emission 	701.87095747132
scalar RSUExampleScenario.node[131].veinsmobility 	startTime 	786.1
scalar RSUExampleScenario.node[131].veinsmobility 	totalTime 	226.9
scalar RSUExampleScenario.node[131].veinsmobility 	stopTime 	1013.1
scalar RSUExampleScenario.node[131].veinsmobility 	minSpeed 	0.25967761156522
scalar RSUExampleScenario.node[131].veinsmobility 	maxSpeed 	18.999489359744
scalar RSUExampleScenario.node[131].veinsmobility 	totalDistance 	3409.7396557463
scalar RSUExampleScenario.node[131].veinsmobility 	totalCO2Emission 	707.80190839377
scalar RSUExampleScenario.node[132].veinsmobility 	startTime 	792.1
scalar RSUExampleScenario.node[132].veinsmobility 	totalTime 	226.9
scalar RSUExampleScenario.node[132].veinsmobility 	stopTime 	1019.1
scalar RSUExampleScenario.node[132].veinsmobility 	minSpeed 	0.25397604425042
scalar RSUExampleScenario.node[132].veinsmobility 	maxSpeed 	18.999840047781
scalar RSUExampleScenario.node[132].veinsmobility 	totalDistance 	3409.5240907043
scalar RSUExampleScenario.node[132].veinsmobility 	totalCO2Emission 	705.92654452956
scalar RSUExampleScenario.node[133].veinsmobility 	startTime 	798.1
scalar RSUExampleScenario.node[133].veinsmobility 	totalTime 	226.8
scalar RSUExampleScenario.node[133].veinsmobility 	stopTime 	1025
scalar RSUExampleScenario.node[133].veinsmobility 	minSpeed 	0.2583354462136
scalar RSUExampleScenario.node[133].veinsmobility 	maxSpeed 	18.999707159256
scalar RSUExampleScenario.node[133].veinsmobility 	totalDistance 	3409.529808448
scalar RSUExampleScenario.node[133].veinsmobility 	totalCO2Emission 	711.38580291497
scalar RSUExampleScenario.node[134].veinsmobility 	startTime 	804.1
scalar RSUExampleScenario.node[134].veinsmobility 	totalTime 	226.8
scalar RSUExampleScenario.node[134].veinsmobility 	stopTime 	1031
scalar RSUExampleScenario.node[134].veinsmobility 	minSpeed 	0.25316048158449
scalar RSUExampleScenario.node[134].veinsmobility 	maxSpeed 	18.999958864569
scalar RSUExampleScenario.node[134].veinsmobility 	totalDistance 	3409.2854071285
scalar RSUExampleScenario.node[134].veinsmobility 	totalCO2Emission 	709.09560083394
scalar RSUExampleScenario.node[135].veinsmobility 	startTime 	810.1
scalar RSUExampleScenario.node[135].veinsmobility 	totalTime 	227
scalar RSUExampleScenario.node[135].veinsmobility 	stopTime 	1037.2
scalar RSUExampleScenario.node[135].veinsmobility 	minSpeed 	0.24737569804513
scalar RSUExampleScenario.node[135].veinsmobility 	maxSpeed 	18.999927874422
scalar RSUExampleScenario.node[135].veinsmobility 	totalDistance 	3409.4782586968
scalar RSUExampleScenario.node[135].veinsmobility 	totalCO2Emission 	708.41085427962
scalar RSUExampleScenario.node[136].veinsmobility 	startTime 	816.1
scalar RSUExampleScenario.node[136].veinsmobility 	totalTime 	227
scalar RSUExampleScenario.node[136].veinsmobility 	stopTime 	1043.2
scalar RSUExampleScenario.node[136].veinsmobility 	minSpeed 	0.25716356761195
scalar RSUExampleScenario.node[136].veinsmobility 	maxSpeed 	18.999977205424
scalar RSUExampleScenario.node[136].veinsmobility 	totalDistance 	3409.4016081388
scalar RSUExampleScenario.node[136].veinsmobility 	totalCO2Emission 	705.31334058904
scalar RSUExampleScenario.node[137].veinsmobility 	startTime 	822.1
scalar RSUExampleScenario.node[137].veinsmobility 	totalTime 	226.9
scalar RSUExampleScenario.node[137].veinsmobility 	stopTime 	1049.1
scalar RSUExampleScenario.node[137].veinsmobility 	minSpeed 	0.2523055736362
scalar RSUExampleScenario.node[137].veinsmobility 	maxSpeed 	18.999565511115
scalar RSUExampleScenario.node[137].veinsmobility 	totalDistance 	3409.4155103307
scalar RSUExampleScenario.node[137].veinsmobility 	totalCO2Emission 	704.84946934817
scalar RSUExampleScenario.node[138].veinsmobility 	startTime 	828.1
scalar RSUExampleScenario.node[138].veinsmobility 	totalTime 	227
scalar RSUExampleScenario.node[138].veinsmobility 	stopTime 	1055.2
scalar RSUExampleScenario.node[138].veinsmobility 	minSpeed 	0.25064368970087
scalar RSUExampleScenario.node[138].veinsmobility 	maxSpeed 	18.999940358936
scalar RSUExampleScenario.node[138].veinsmobility 	totalDistance 	3409.5925591521
scalar RSUExampleScenario.node[138].veinsmobility 	totalCO2Emission 	703.90349770498
scalar RSUExampleScenario.node[139].veinsmobility 	startTime 	834.1
scalar RSUExampleScenario.node[139].veinsmobility 	totalTime 	227
scalar RSUExampleScenario.node[139].veinsmobility 	stopTime 	1061.2
scalar RSUExampleScenario.node[139].veinsmobility 	minSpeed 	0.25718222817197
scalar RSUExampleScenario.node[139].veinsmobility 	maxSpeed 	18.999858437215
scalar RSUExampleScenario.node[139].veinsmobility 	totalDistance 	3409.4906103242
scalar RSUExampleScenario.node[139].veinsmobility 	totalCO2Emission 	707.37035883301
scalar RSUExampleScenario.node[140].veinsmobility 	startTime 	840.1
scalar RSUExampleScenario.node[140].veinsmobility 	totalTime 	227
scalar RSUExampleScenario.node[140].veinsmobility 	stopTime 	1067.2
scalar RSUExampleScenario.node[140].veinsmobility 	minSpeed 	0.25591420794511
scalar RSUExampleScenario.node[140].veinsmobility 	maxSpeed 	18.99996356664
scalar RSUExampleScenario.node[140].veinsmobility 	totalDistance 	3409.3230474857
scalar RSUExampleScenario.node[140].veinsmobility 	totalCO2Emission 	707.97999741699
scalar RSUExampleScenario.node[141].veinsmobility 	startTime 	846.1
scalar RSUExampleScenario.node[141].veinsmobility 	totalTime 	227
scalar RSUExampleScenario.node[141].veinsmobility 	stopTime 	1073.2
scalar RSUExampleScenario.node[141].veinsmobility 	minSpeed 	0.25777466571983
scalar RSUExampleScenario.node[141].veinsmobility 	maxSpeed 	18.999920545544
scalar RSUExampleScenario.node[141].veinsmobility 	totalDistance 	3409.5670481186
scalar RSUExampleScenario.node[141].veinsmobility 	totalCO2Emission 	707.33137437194
scalar RSUExampleScenario.node[142].veinsmobility 	startTime 	852.1
scalar RSUExampleScenario.node[142].veinsmobility 	totalTime 	226.5
scalar RSUExampleScenario.node[142].veinsmobility 	stopTime 	1078.7
scalar RSUExampleScenario.node[142].veinsmobility 	minSpeed 	0.25449547575461
scalar RSUExampleScenario.node[142].veinsmobility 	maxSpeed 	18.999784376181
scalar RSUExampleScenario.node[142].veinsmobility 	totalDistance 	3409.5536992522
scalar RSUExampleScenario.node[142].veinsmobility 	totalCO2Emission 	709.74590878477
scalar RSUExampleScenario.node[143].veinsmobility 	startTime 	858.1
scalar RSUExampleScenario.node[143].veinsmobility 	totalTime 	227
scalar RSUExampleScenario.node[143].veinsmobility 	stopTime 	1085.2
scalar RSUExampleScenario.node[143].veinsmobility 	minSpeed 	0.24987885194109
scalar RSUExampleScenario.node[143].veinsmobility 	maxSpeed 	18.999978422197
scalar RSUExampleScenario.node[143].veinsmobility 	totalDistance 	3409.3913267176
scalar RSUExampleScenario.node[143].veinsmobility 	totalCO2Emission 	706.29127275514
scalar RSUExampleScenario.node[144].veinsmobility 	startTime 	864.1
scalar RSUExampleScenario.node[144].veinsmobility 	totalTime 	226.8
scalar RSUExampleScenario.node[144].veinsmobility 	stopTime 	1091
scalar RSUExampleScenario.node[144].veinsmobility 	minSpeed 	0.25744019849505
scalar RSUExampleScenario.node[144].veinsmobility 	maxSpeed 	18.999545718336
scalar RSUExampleScenario.node[144].veinsmobility 	totalDistance 	3409.3608487705
scalar RSUExampleScenario.node[144].veinsmobility 	totalCO2Emission 	707.56241488166
scalar RSUExampleScenario.node[145].veinsmobility 	startTime 	870.1
scalar RSUExampleScenario.node[145].veinsmobility 	totalTime 	227
scalar RSUExampleScenario.node[145].veinsmobility 	stopTime 	1097.2
scalar RSUExampleScenario.node[145].veinsmobility 	minSpeed 	0.25362662135763
scalar RSUExampleScenario.node[145].veinsmobility 	maxSpeed 	18.999865712943
scalar RSUExampleScenario.node[145].veinsmobility 	totalDistance 	3409.4062625301
scalar RSUExampleScenario.node[145].veinsmobility 	totalCO2Emission 	704.57095576964
scalar RSUExampleScenario.node[146].veinsmobility 	startTime 	876.1
scalar RSUExampleScenario.node[146].veinsmobility 	totalTime 	226.6
scalar RSUExampleScenario.node[146].veinsmobility 	stopTime 	1102.8
scalar RSUExampleScenario.node[146].veinsmobility 	minSpeed 	0.25552591626067
scalar RSUExampleScenario.node[146].veinsmobility 	maxSpeed 	18.999837063055
scalar RSUExampleScenario.node[146].veinsmobility 	totalDistance 	3409.6245669788
scalar RSUExampleScenario.node[146].veinsmobility 	totalCO2Emission 	704.96387065496
scalar RSUExampleScenario.node[147].veinsmobility 	startTime 	882.1
scalar RSUExampleScenario.node[147].veinsmobility 	totalTime 	227.2
scalar RSUExampleScenario.node[147].veinsmobility 	stopTime 	1109.4
scalar RSUExampleScenario.node[147].veinsmobility 	minSpeed 	0.2516523127507
scalar RSUExampleScenario.node[147].veinsmobility 	maxSpeed 	18.999955427004
scalar RSUExampleScenario.node[147].veinsmobility 	totalDistance 	3409.7999503748
scalar RSUExampleScenario.node[147].veinsmobility 	totalCO2Emission 	710.7788190014
scalar RSUExampleScenario.node[148].veinsmobility 	startTime 	888.1
scalar RSUExampleScenario.node[148].veinsmobility 	totalTime 	226.7
scalar RSUExampleScenario.node[148].veinsmobility 	stopTime 	1114.9
scalar RSUExampleScenario.node[148].veinsmobility 	minSpeed 	0.24970981508633
scalar RSUExampleScenario.node[148].veinsmobility 	maxSpeed 	18.99981331307
scalar RSUExampleScenario.node[148].veinsmobility 	totalDistance 	3409.3355730972
scalar RSUExampleScenario.node[148].veinsmobility 	totalCO2Emission 	706.42595821608
scalar RSUExampleScenario.node[149].veinsmobility 	startTime 	894.1
scalar RSUExampleScenario.node[149].veinsmobility 	totalTime 	226.9
scalar RSUExampleScenario.node[149].veinsmobility 	stopTime 	1121.1
scalar RSUExampleScenario.node[149].veinsmobility 	minSpeed 	0.25789590118034
scalar RSUExampleScenario.node[149].veinsmobility 	maxSpeed 	18.99952396519
scalar RSUExampleScenario.node[149].veinsmobility 	totalDistance 	3409.6214460513
scalar RSUExampleScenario.node[149].veinsmobility 	totalCO2Emission 	704.77398118302
scalar RSUExampleScenario.node[150].veinsmobility 	startTime 	900.1
scalar RSUExampleScenario.node[150].veinsmobility 	totalTime 	226.9
scalar RSUExampleScenario.node[150].veinsmobility 	stopTime 	1127.1
scalar RSUExampleScenario.node[150].veinsmobility 	minSpeed 	0.25555030222167
scalar RSUExampleScenario.node[150].veinsmobility 	maxSpeed 	18.999980761609
scalar RSUExampleScenario.node[150].veinsmobility 	totalDistance 	3409.6631292349
scalar RSUExampleScenario.node[150].veinsmobility 	totalCO2Emission 	707.12418607615
scalar RSUExampleScenario.node[151].veinsmobility 	startTime 	906.1
scalar RSUExampleScenario.node[151].veinsmobility 	totalTime 	227
scalar RSUExampleScenario.node[151].veinsmobility 	stopTime 	1133.2
scalar RSUExampleScenario.node[151].veinsmobility 	minSpeed 	0.25253964880574
scalar RSUExampleScenario.node[151].veinsmobility 	maxSpeed 	18.999815292959
scalar RSUExampleScenario.node[151].veinsmobility 	totalDistance 	3409.5100506468
scalar RSUExampleScenario.node[151].veinsmobility 	totalCO2Emission 	707.77423892497
scalar RSUExampleScenario.node[152].veinsmobility 	startTime 	912.1
scalar RSUExampleScenario.node[152].veinsmobility 	totalTime 	227
scalar RSUExampleScenario.node[152].veinsmobility 	stopTime 	1139.2
scalar RSUExampleScenario.node[152].veinsmobility 	minSpeed 	0.25385420649336
scalar RSUExampleScenario.node[152].veinsmobility 	maxSpeed 	18.999990604455
scalar RSUExampleScenario.node[152].veinsmobility 	totalDistance 	3409.2772228061
scalar RSUExampleScenario.node[152].veinsmobility 	totalCO2Emission 	709.94189159637
[...]
scalar RSUExampleScenario.node[262].veinsmobility 	startTime 	1572.1
scalar RSUExampleScenario.node[262].veinsmobility 	totalTime 	227
scalar RSUExampleScenario.node[262].veinsmobility 	stopTime 	1799.2
scalar RSUExampleScenario.node[262].veinsmobility 	minSpeed 	0.25648729507718
scalar RSUExampleScenario.node[262].veinsmobility 	maxSpeed 	18.999596051723
scalar RSUExampleScenario.node[262].veinsmobility 	totalDistance 	3409.6194151422
scalar RSUExampleScenario.node[262].veinsmobility 	totalCO2Emission 	706.91680981514
scalar RSUExampleScenario.node[263].veinsmobility 	startTime 	1578.1
scalar RSUExampleScenario.node[263].veinsmobility 	totalTime 	226.9
scalar RSUExampleScenario.node[263].veinsmobility 	stopTime 	1805.1
scalar RSUExampleScenario.node[263].veinsmobility 	minSpeed 	0.25827941855951
scalar RSUExampleScenario.node[263].veinsmobility 	maxSpeed 	18.999699614991
scalar RSUExampleScenario.node[263].veinsmobility 	totalDistance 	3409.7704177732
scalar RSUExampleScenario.node[263].veinsmobility 	totalCO2Emission 	707.58145603684
scalar RSUExampleScenario.node[264].veinsmobility 	startTime 	1584.1
scalar RSUExampleScenario.node[264].veinsmobility 	totalTime 	226.8
scalar RSUExampleScenario.node[264].veinsmobility 	stopTime 	1811
scalar RSUExampleScenario.node[264].veinsmobility 	minSpeed 	0.25014667709894
scalar RSUExampleScenario.node[264].veinsmobility 	maxSpeed 	18.999115368265
scalar RSUExampleScenario.node[264].veinsmobility 	totalDistance 	3409.2431917765
scalar RSUExampleScenario.node[264].veinsmobility 	totalCO2Emission 	711.0735166594
scalar RSUExampleScenario.node[265].veinsmobility 	startTime 	1590.1
scalar RSUExampleScenario.node[265].veinsmobility 	totalTime 	226.7
scalar RSUExampleScenario.node[265].veinsmobility 	stopTime 	1816.9
scalar RSUExampleScenario.node[265].veinsmobility 	minSpeed 	0.25864967083745
scalar RSUExampleScenario.node[265].veinsmobility 	maxSpeed 	18.999970553308
scalar RSUExampleScenario.node[265].veinsmobility 	totalDistance 	3409.0705270623
scalar RSUExampleScenario.node[265].veinsmobility 	totalCO2Emission 	710.03629426499
scalar RSUExampleScenario.node[266].veinsmobility 	startTime 	1596.1
scalar RSUExampleScenario.node[266].veinsmobility 	totalTime 	227
scalar RSUExampleScenario.node[266].veinsmobility 	stopTime 	1823.2
scalar RSUExampleScenario.node[266].veinsmobility 	minSpeed 	0.24919926200202
scalar RSUExampleScenario.node[266].veinsmobility 	maxSpeed 	18.999700640652
scalar RSUExampleScenario.node[266].veinsmobility 	totalDistance 	3409.2531176587
scalar RSUExampleScenario.node[266].veinsmobility 	totalCO2Emission 	704.7345575414
scalar RSUExampleScenario.node[267].veinsmobility 	startTime 	1602.1
scalar RSUExampleScenario.node[267].veinsmobility 	totalTime 	226.8
scalar RSUExampleScenario.node[267].veinsmobility 	stopTime 	1829
scalar RSUExampleScenario.node[267].veinsmobility 	minSpeed 	0.2488947036101
scalar RSUExampleScenario.node[267].veinsmobility 	maxSpeed 	18.99948830887
scalar RSUExampleScenario.node[267].veinsmobility 	totalDistance 	3409.696534352
scalar RSUExampleScenario.node[267].veinsmobility 	totalCO2Emission 	708.67048879396
scalar RSUExampleScenario.node[268].veinsmobility 	startTime 	1608.1
scalar RSUExampleScenario.node[268].veinsmobility 	totalTime 	226.9
scalar RSUExampleScenario.node[268].veinsmobility 	stopTime 	1835.1
scalar RSUExampleScenario.node[268].veinsmobility 	minSpeed 	0.25793412966491
scalar RSUExampleScenario.node[268].veinsmobility 	maxSpeed 	18.999979047412
scalar RSUExampleScenario.node[268].veinsmobility 	totalDistance 	3409.5339666387
scalar RSUExampleScenario.node[268].veinsmobility 	totalCO2Emission 	708.84398413251
scalar RSUExampleScenario.node[269].veinsmobility 	startTime 	1614.1
scalar RSUExampleScenario.node[269].veinsmobility 	totalTime 	226.9
scalar RSUExampleScenario.node[269].veinsmobility 	stopTime 	1841.1
scalar RSUExampleScenario.node[269].veinsmobility 	minSpeed 	0.25469533350738
scalar RSUExampleScenario.node[269].veinsmobility 	maxSpeed 	18.999813692903
scalar RSUExampleScenario.node[269].veinsmobility 	totalDistance 	3409.5543797593
scalar RSUExampleScenario.node[269].veinsmobility 	totalCO2Emission 	712.29352711419
scalar RSUExampleScenario.node[270].veinsmobility 	startTime 	1620.1
scalar RSUExampleScenario.node[270].veinsmobility 	totalTime 	227.1
scalar RSUExampleScenario.node[270].veinsmobility 	stopTime 	1847.3
scalar RSUExampleScenario.node[270].veinsmobility 	minSpeed 	0.25957911816309
scalar RSUExampleScenario.node[270].veinsmobility 	maxSpeed 	18.999813760158
scalar RSUExampleScenario.node[270].veinsmobility 	totalDistance 	3409.8924391783
scalar RSUExampleScenario.node[270].veinsmobility 	totalCO2Emission 	705.33622660889
scalar RSUExampleScenario.node[271].veinsmobility 	startTime 	1626.1
scalar RSUExampleScenario.node[271].veinsmobility 	totalTime 	226.8
scalar RSUExampleScenario.node[271].veinsmobility 	stopTime 	1853
scalar RSUExampleScenario.node[271].veinsmobility 	minSpeed 	0.25616121455375
scalar RSUExampleScenario.node[271].veinsmobility 	maxSpeed 	18.999850586397
scalar RSUExampleScenario.node[271].veinsmobility 	totalDistance 	3409.7987521683
scalar RSUExampleScenario.node[271].veinsmobility 	totalCO2Emission 	707.61313632851
scalar RSUExampleScenario.node[272].veinsmobility 	startTime 	1632.1
scalar RSUExampleScenario.node[272].veinsmobility 	totalTime 	226.8
scalar RSUExampleScenario.node[272].veinsmobility 	stopTime 	1859
scalar RSUExampleScenario.node[272].veinsmobility 	minSpeed 	0.25339031968126
scalar RSUExampleScenario.node[272].veinsmobility 	maxSpeed 	18.999999466557
scalar RSUExampleScenario.node[272].veinsmobility 	totalDistance 	3409.4865165955
scalar RSUExampleScenario.node[272].veinsmobility 	totalCO2Emission 	708.12350407696
scalar RSUExampleScenario.node[273].veinsmobility 	startTime 	1638.1
scalar RSUExampleScenario.node[273].veinsmobility 	totalTime 	227
scalar RSUExampleScenario.node[273].veinsmobility 	stopTime 	1865.2
scalar RSUExampleScenario.node[273].veinsmobility 	minSpeed 	0.25951956107444
scalar RSUExampleScenario.node[273].veinsmobility 	maxSpeed 	18.999880426512
scalar RSUExampleScenario.node[273].veinsmobility 	totalDistance 	3409.5814323142
scalar RSUExampleScenario.node[273].veinsmobility 	totalCO2Emission 	709.68182707899
scalar RSUExampleScenario.node[274].veinsmobility 	startTime 	1644.1
scalar RSUExampleScenario.node[274].veinsmobility 	totalTime 	226.8
scalar RSUExampleScenario.node[274].veinsmobility 	stopTime 	1871
scalar RSUExampleScenario.node[274].veinsmobility 	minSpeed 	0.25486677190871
scalar RSUExampleScenario.node[274].veinsmobility 	maxSpeed 	18.999946754107
scalar RSUExampleScenario.node[274].veinsmobility 	totalDistance 	3409.3250752909
scalar RSUExampleScenario.node[274].veinsmobility 	totalCO2Emission 	704.16266818268
scalar RSUExampleScenario.node[275].veinsmobility 	startTime 	1650.1
scalar RSUExampleScenario.node[275].veinsmobility 	totalTime 	227.1
scalar RSUExampleScenario.node[275].veinsmobility 	stopTime 	1877.3
scalar RSUExampleScenario.node[275].veinsmobility 	minSpeed 	0.25449240932637
scalar RSUExampleScenario.node[275].veinsmobility 	maxSpeed 	18.999937785703
scalar RSUExampleScenario.node[275].veinsmobility 	totalDistance 	3410.0549243164
scalar RSUExampleScenario.node[275].veinsmobility 	totalCO2Emission 	706.69089008127
scalar RSUExampleScenario.node[276].veinsmobility 	startTime 	1656.1
scalar RSUExampleScenario.node[276].veinsmobility 	totalTime 	226.8
scalar RSUExampleScenario.node[276].veinsmobility 	stopTime 	1883
scalar RSUExampleScenario.node[276].veinsmobility 	minSpeed 	0.2481454619132
scalar RSUExampleScenario.node[276].veinsmobility 	maxSpeed 	18.999532209735
scalar RSUExampleScenario.node[276].veinsmobility 	totalDistance 	3409.0966020369
scalar RSUExampleScenario.node[276].veinsmobility 	totalCO2Emission 	705.01808097184
scalar RSUExampleScenario.node[277].veinsmobility 	startTime 	1662.1
scalar RSUExampleScenario.node[277].veinsmobility 	totalTime 	226.9
scalar RSUExampleScenario.node[277].veinsmobility 	stopTime 	1889.1
scalar RSUExampleScenario.node[277].veinsmobility 	minSpeed 	0.25086189111695
scalar RSUExampleScenario.node[277].veinsmobility 	maxSpeed 	18.999987406309
scalar RSUExampleScenario.node[277].veinsmobility 	totalDistance 	3409.1923742373
scalar RSUExampleScenario.node[277].veinsmobility 	totalCO2Emission 	705.50988254376
scalar RSUExampleScenario.node[278].veinsmobility 	startTime 	1668.1
scalar RSUExampleScenario.node[278].veinsmobility 	totalTime 	226.6
scalar RSUExampleScenario.node[278].veinsmobility 	stopTime 	1894.8
scalar RSUExampleScenario.node[278].veinsmobility 	minSpeed 	0.24754862642125
scalar RSUExampleScenario.node[278].veinsmobility 	maxSpeed 	18.999691867537
scalar RSUExampleScenario.node[278].veinsmobility 	totalDistance 	3409.3645791576
scalar RSUExampleScenario.node[278].veinsmobility 	totalCO2Emission 	706.06738505746
scalar RSUExampleScenario.node[279].veinsmobility 	startTime 	1674.1
scalar RSUExampleScenario.node[279].veinsmobility 	totalTime 	227
scalar RSUExampleScenario.node[279].veinsmobility 	stopTime 	1901.2
scalar RSUExampleScenario.node[279].veinsmobility 	minSpeed 	0.24756329343561
scalar RSUExampleScenario.node[279].veinsmobility 	maxSpeed 	18.99987333091
scalar RSUExampleScenario.node[279].veinsmobility 	totalDistance 	3409.4238837102
scalar RSUExampleScenario.node[279].veinsmobility 	totalCO2Emission 	710.81606345884
scalar RSUExampleScenario.node[280].veinsmobility 	startTime 	1680.1
scalar RSUExampleScenario.node[280].veinsmobility 	totalTime 	226.9
scalar RSUExampleScenario.node[280].veinsmobility 	stopTime 	1907.1
scalar RSUExampleScenario.node[280].veinsmobility 	minSpeed 	0.25080361022335
scalar RSUExampleScenario.node[280].veinsmobility 	maxSpeed 	18.999984276297
scalar RSUExampleScenario.node[280].veinsmobility 	totalDistance 	3409.1012700199
scalar RSUExampleScenario.node[280].veinsmobility 	totalCO2Emission 	709.76766528167
scalar RSUExampleScenario.node[281].veinsmobility 	startTime 	1686.1
scalar RSUExampleScenario.node[281].veinsmobility 	totalTime 	227
scalar RSUExampleScenario.node[281].veinsmobility 	stopTime 	1913.2
scalar RSUExampleScenario.node[281].veinsmobility 	minSpeed 	0.25742508369917
scalar RSUExampleScenario.node[281].veinsmobility 	maxSpeed 	18.99990424227
scalar RSUExampleScenario.node[281].veinsmobility 	totalDistance 	3409.4732331873
scalar RSUExampleScenario.node[281].veinsmobility 	totalCO2Emission 	706.63560557592
scalar RSUExampleScenario.node[282].veinsmobility 	startTime 	1692.1
scalar RSUExampleScenario.node[282].veinsmobility 	totalTime 	226.8
scalar RSUExampleScenario.node[282].veinsmobility 	stopTime 	1919
scalar RSUExampleScenario.node[282].veinsmobility 	minSpeed 	0.2535706057623
scalar RSUExampleScenario.node[282].veinsmobility 	maxSpeed 	18.999895552937
scalar RSUExampleScenario.node[282].veinsmobility 	totalDistance 	3409.757253975
scalar RSUExampleScenario.node[282].veinsmobility 	totalCO2Emission 	706.89839673975
scalar RSUExampleScenario.node[283].veinsmobility 	startTime 	1698.1
scalar RSUExampleScenario.node[283].veinsmobility 	totalTime 	226.8
scalar RSUExampleScenario.node[283].veinsmobility 	stopTime 	1925
scalar RSUExampleScenario.node[283].veinsmobility 	minSpeed 	0.25751072832709
scalar RSUExampleScenario.node[283].veinsmobility 	maxSpeed 	18.999967713899
scalar RSUExampleScenario.node[283].veinsmobility 	totalDistance 	3409.4708634886
scalar RSUExampleScenario.node[283].veinsmobility 	totalCO2Emission 	708.47789093173
scalar RSUExampleScenario.node[284].veinsmobility 	startTime 	1704.1
scalar RSUExampleScenario.node[284].veinsmobility 	totalTime 	226.8
scalar RSUExampleScenario.node[284].veinsmobility 	stopTime 	1931
scalar RSUExampleScenario.node[284].veinsmobility 	minSpeed 	0.25062370208348
scalar RSUExampleScenario.node[284].veinsmobility 	maxSpeed 	18.999589869305
scalar RSUExampleScenario.node[284].veinsmobility 	totalDistance 	3409.4808361598
scalar RSUExampleScenario.node[284].veinsmobility 	totalCO2Emission 	708.49333687736
scalar RSUExampleScenario.node[285].veinsmobility 	startTime 	1710.1
scalar RSUExampleScenario.node[285].veinsmobility 	totalTime 	226.9
scalar RSUExampleScenario.node[285].veinsmobility 	stopTime 	1937.1
scalar RSUExampleScenario.node[285].veinsmobility 	minSpeed 	0.24948410003982
scalar RSUExampleScenario.node[285].veinsmobility 	maxSpeed 	18.999973416962
scalar RSUExampleScenario.node[285].veinsmobility 	totalDistance 	3409.6624988631
scalar RSUExampleScenario.node[285].veinsmobility 	totalCO2Emission 	706.67665252693
scalar RSUExampleScenario.node[286].veinsmobility 	startTime 	1716.1
scalar RSUExampleScenario.node[286].veinsmobility 	totalTime 	226.7
scalar RSUExampleScenario.node[286].veinsmobility 	stopTime 	1942.9
scalar RSUExampleScenario.node[286].veinsmobility 	minSpeed 	0.25709891853435
scalar RSUExampleScenario.node[286].veinsmobility 	maxSpeed 	18.999577085956
scalar RSUExampleScenario.node[286].veinsmobility 	totalDistance 	3409.5893735187
scalar RSUExampleScenario.node[286].veinsmobility 	totalCO2Emission 	708.52156940886
scalar RSUExampleScenario.node[287].veinsmobility 	startTime 	1722.1
scalar RSUExampleScenario.node[287].veinsmobility 	totalTime 	226.8
scalar RSUExampleScenario.node[287].veinsmobility 	stopTime 	1949
scalar RSUExampleScenario.node[287].veinsmobility 	minSpeed 	0.25639143764414
scalar RSUExampleScenario.node[287].veinsmobility 	maxSpeed 	18.999923232524
scalar RSUExampleScenario.node[287].veinsmobility 	totalDistance 	3409.7604408092
scalar RSUExampleScenario.node[287].veinsmobility 	totalCO2Emission 	708.84158680656
scalar RSUExampleScenario.node[288].veinsmobility 	startTime 	1728.1
scalar RSUExampleScenario.node[288].veinsmobility 	totalTime 	226.8
scalar RSUExampleScenario.node[288].veinsmobility 	stopTime 	1955
scalar RSUExampleScenario.node[288].veinsmobility 	minSpeed 	0.24734845812502
scalar RSUExampleScenario.node[288].veinsmobility 	maxSpeed 	18.999598730893
scalar RSUExampleScenario.node[288].veinsmobility 	totalDistance 	3409.4399753535
scalar RSUExampleScenario.node[288].veinsmobility 	totalCO2Emission 	706.57535143201
scalar RSUExampleScenario.node[289].veinsmobility 	startTime 	1734.1
scalar RSUExampleScenario.node[289].veinsmobility 	totalTime 	226.9
scalar RSUExampleScenario.node[289].veinsmobility 	stopTime 	1961.1
scalar RSUExampleScenario.node[289].veinsmobility 	minSpeed 	0.24852342922171
scalar RSUExampleScenario.node[289].veinsmobility 	maxSpeed 	18.999604310403
scalar RSUExampleScenario.node[289].veinsmobility 	totalDistance 	3409.6184252668
scalar RSUExampleScenario.node[289].veinsmobility 	totalCO2Emission 	708.95919253925
scalar RSUExampleScenario.node[290].veinsmobility 	startTime 	1740.1
scalar RSUExampleScenario.node[290].veinsmobility 	totalTime 	226.9
scalar RSUExampleScenario.node[290].veinsmobility 	stopTime 	1967.1
scalar RSUExampleScenario.node[290].veinsmobility 	minSpeed 	0.25748686190089
scalar RSUExampleScenario.node[290].veinsmobility 	maxSpeed 	18.999911712438
scalar RSUExampleScenario.node[290].veinsmobility 	totalDistance 	3409.4851588427
scalar RSUExampleScenario.node[290].veinsmobility 	totalCO2Emission 	706.22518243199
scalar RSUExampleScenario.node[291].veinsmobility 	startTime 	1746.1
scalar RSUExampleScenario.node[291].veinsmobility 	totalTime 	226.8
scalar RSUExampleScenario.node[291].veinsmobility 	stopTime 	1973
scalar RSUExampleScenario.node[291].veinsmobility 	minSpeed 	0.25285890073585
scalar RSUExampleScenario.node[291].veinsmobility 	maxSpeed 	18.999686812814
scalar RSUExampleScenario.node[291].veinsmobility 	totalDistance 	3409.1552783918
scalar RSUExampleScenario.node[291].veinsmobility 	totalCO2Emission 	708.02401129037
scalar RSUExampleScenario.node[292].veinsmobility 	startTime 	1752.1
scalar RSUExampleScenario.node[292].veinsmobility 	totalTime 	226.9
scalar RSUExampleScenario.node[292].veinsmobility 	stopTime 	1979.1
scalar RSUExampleScenario.node[292].veinsmobility 	minSpeed 	0.25309857450472
scalar RSUExampleScenario.node[292].veinsmobility 	maxSpeed 	18.999543970269
scalar RSUExampleScenario.node[292].veinsmobility 	totalDistance 	3409.8767483036
scalar RSUExampleScenario.node[292].veinsmobility 	totalCO2Emission 	705.12841523125
scalar RSUExampleScenario.node[293].veinsmobility 	startTime 	1758.1
scalar RSUExampleScenario.node[293].veinsmobility 	totalTime 	226.9
scalar RSUExampleScenario.node[293].veinsmobility 	stopTime 	1985.1
scalar RSUExampleScenario.node[293].veinsmobility 	minSpeed 	0.2480034228377
scalar RSUExampleScenario.node[293].veinsmobility 	maxSpeed 	18.999675730192
scalar RSUExampleScenario.node[293].veinsmobility 	totalDistance 	3409.2315914038
scalar RSUExampleScenario.node[293].veinsmobility 	totalCO2Emission 	706.4542058697
scalar RSUExampleScenario.node[294].veinsmobility 	startTime 	1764.1
scalar RSUExampleScenario.node[294].veinsmobility 	totalTime 	227
scalar RSUExampleScenario.node[294].veinsmobility 	stopTime 	1991.2
scalar RSUExampleScenario.node[294].veinsmobility 	minSpeed 	0.2590992131799
scalar RSUExampleScenario.node[294].veinsmobility 	maxSpeed 	18.999798062153
scalar RSUExampleScenario.node[294].veinsmobility 	totalDistance 	3409.3301624497
scalar RSUExampleScenario.node[294].veinsmobility 	totalCO2Emission 	708.56120363193
scalar RSUExampleScenario.node[295].veinsmobility 	startTime 	1770.1
scalar RSUExampleScenario.node[295].veinsmobility 	totalTime 	226.9
scalar RSUExampleScenario.node[295].veinsmobility 	stopTime 	1997.1
scalar RSUExampleScenario.node[295].veinsmobility 	minSpeed 	0.24939305094234
scalar RSUExampleScenario.node[295].veinsmobility 	maxSpeed 	18.999811224246
scalar RSUExampleScenario.node[295].veinsmobility 	totalDistance 	3409.1831924009
scalar RSUExampleScenario.node[295].veinsmobility 	totalCO2Emission 	703.87149200293
scalar RSUExampleScenario.node[296].veinsmobility 	startTime 	1776.1
scalar RSUExampleScenario.node[296].veinsmobility 	totalTime 	223.8
scalar RSUExampleScenario.node[296].veinsmobility 	stopTime 	2000
scalar RSUExampleScenario.node[296].veinsmobility 	minSpeed 	0.24895907471562
scalar RSUExampleScenario.node[296].veinsmobility 	maxSpeed 	18.999984512478
scalar RSUExampleScenario.node[296].veinsmobility 	totalDistance 	3389.0262522953
scalar RSUExampleScenario.node[296].veinsmobility 	totalCO2Emission 	694.44730900657
scalar RSUExampleScenario.node[297].veinsmobility 	startTime 	1782.1
scalar RSUExampleScenario.node[297].veinsmobility 	totalTime 	217.8
scalar RSUExampleScenario.node[297].veinsmobility 	stopTime 	2000
scalar RSUExampleScenario.node[297].veinsmobility 	minSpeed 	0.25683738955599
scalar RSUExampleScenario.node[297].veinsmobility 	maxSpeed 	18.999605004932
scalar RSUExampleScenario.node[297].veinsmobility 	totalDistance 	3322.5843902963
scalar RSUExampleScenario.node[297].veinsmobility 	totalCO2Emission 	680.9133974539
scalar RSUExampleScenario.node[298].veinsmobility 	startTime 	1788.1
scalar RSUExampleScenario.node[298].veinsmobility 	totalTime 	211.8
scalar RSUExampleScenario.node[298].veinsmobility 	stopTime 	2000
scalar RSUExampleScenario.node[298].veinsmobility 	minSpeed 	0.25486647252506
scalar RSUExampleScenario.node[298].veinsmobility 	maxSpeed 	18.999773473684
scalar RSUExampleScenario.node[298].veinsmobility 	totalDistance 	3241.3672493063
scalar RSUExampleScenario.node[298].veinsmobility 	totalCO2Emission 	668.72602728382
scalar RSUExampleScenario.node[299].veinsmobility 	startTime 	1794.1
scalar RSUExampleScenario.node[299].veinsmobility 	totalTime 	205.8
scalar RSUExampleScenario.node[299].veinsmobility 	stopTime 	2000
scalar RSUExampleScenario.node[299].veinsmobility 	minSpeed 	0.25474650775385
scalar RSUExampleScenario.node[299].veinsmobility 	maxSpeed 	18.999891866993
scalar RSUExampleScenario.node[299].veinsmobility 	totalDistance 	3160.2485399025
scalar RSUExampleScenario.node[299].veinsmobility 	totalCO2Emission 	658.58124710333
