version 2
run statistic-3456-20150311-16:45:36-10664
attr c 7
attr configname statistic
attr datetime 20150311-16:45:36
attr experiment statistic
attr inifile omnetpp.ini
attr iterationvars "$p=1/2, $c=7"
attr iterationvars2 "$p=1/2, $c=7, $repetition=56"
attr measurement "$p=1/2, $c=7"
attr network RSUExampleScenario
attr p 1/2
attr processid 10664
attr repetition 56
attr replication #56
attr resultdir results
attr runnumber 3456
attr seedset 3456

scalar . 	c 	7
scalar RSUExampleScenario.rsu[0].appl 	NumberofCH 	52
scalar RSUExampleScenario.rsu[0].appl 	NumberofON 	48
scalar RSUExampleScenario.rsu[0].appl 	NumberofFN 	0
scalar RSUExampleScenario.rsu[0].appl 	meanClusterNodes 	0.92307692307692
scalar RSUExampleScenario.rsu[0].appl 	varClusterNodes 	1.1067303515337
scalar RSUExampleScenario.rsu[0].appl 	sumCHutility 	nan
scalar RSUExampleScenario.rsu[0].appl 	meanCHutility 	nan
scalar RSUExampleScenario.rsu[0].appl 	varCHutility 	nan
scalar RSUExampleScenario.rsu[0].appl 	sumDiffCHutility 	-17832.29135245
scalar RSUExampleScenario.rsu[0].appl 	meanDiffCHutility 	-342.92867985481
scalar RSUExampleScenario.rsu[0].appl 	varDiffCHutility 	444.39496392172
scalar RSUExampleScenario.rsu[0].appl 	expectedCHutility 	1769.9661647145
scalar RSUExampleScenario.rsu[0].appl 	meanExpectedCHutility 	34.037810859894
scalar RSUExampleScenario.rsu[0].appl 	varExpectedCHutility 	6.0653725398928
