version 2
run statistic-2973-20150311-13:40:26-6604
attr c 2
attr configname statistic
attr datetime 20150311-13:40:26
attr experiment statistic
attr inifile omnetpp.ini
attr iterationvars "$p=1/2, $c=2"
attr iterationvars2 "$p=1/2, $c=2, $repetition=73"
attr measurement "$p=1/2, $c=2"
attr network RSUExampleScenario
attr p 1/2
attr processid 6604
attr repetition 73
attr replication #73
attr resultdir results
attr runnumber 2973
attr seedset 2973

scalar . 	c 	2
scalar RSUExampleScenario.rsu[0].appl 	NumberofCH 	41
scalar RSUExampleScenario.rsu[0].appl 	NumberofON 	53
scalar RSUExampleScenario.rsu[0].appl 	NumberofFN 	6
scalar RSUExampleScenario.rsu[0].appl 	meanClusterNodes 	1.2926829268293
scalar RSUExampleScenario.rsu[0].appl 	varClusterNodes 	0.74059641222873
scalar RSUExampleScenario.rsu[0].appl 	sumCHutility 	nan
scalar RSUExampleScenario.rsu[0].appl 	meanCHutility 	nan
scalar RSUExampleScenario.rsu[0].appl 	varCHutility 	nan
scalar RSUExampleScenario.rsu[0].appl 	sumDiffCHutility 	-20072.754927681
scalar RSUExampleScenario.rsu[0].appl 	meanDiffCHutility 	-489.57938848003
scalar RSUExampleScenario.rsu[0].appl 	varDiffCHutility 	302.61538076119
scalar RSUExampleScenario.rsu[0].appl 	expectedCHutility 	1395.6999718962
scalar RSUExampleScenario.rsu[0].appl 	meanExpectedCHutility 	34.041462729175
scalar RSUExampleScenario.rsu[0].appl 	varExpectedCHutility 	4.8977837901373
