version 2
run statistic-2581-20150313-10:38:59-11032
attr c 8
attr configname statistic
attr datetime 20150313-10:38:59
attr experiment statistic
attr inifile omnetpp.ini
attr iterationvars "$p=1/5, $c=8"
attr iterationvars2 "$p=1/5, $c=8, $repetition=81"
attr measurement "$p=1/5, $c=8"
attr network RSUExampleScenario
attr p 1/5
attr processid 11032
attr repetition 81
attr replication #81
attr resultdir results
attr runnumber 2581
attr seedset 2581

scalar . 	c 	8
scalar RSUExampleScenario.rsu[0].appl 	NumberofCH 	21
scalar RSUExampleScenario.rsu[0].appl 	NumberofON 	34
scalar RSUExampleScenario.rsu[0].appl 	NumberofFN 	45
scalar RSUExampleScenario.rsu[0].appl 	meanClusterNodes 	21
scalar RSUExampleScenario.rsu[0].appl 	varClusterNodes 	4.5825756949558
scalar RSUExampleScenario.rsu[0].appl 	sumCHutility 	274.15546948063
scalar RSUExampleScenario.rsu[0].appl 	meanCHutility 	21
scalar RSUExampleScenario.rsu[0].appl 	varCHutility 	4.5825756949558
scalar RSUExampleScenario.rsu[0].appl 	sumDiffCHutility 	68.752928724836
scalar RSUExampleScenario.rsu[0].appl 	meanDiffCHutility 	21
scalar RSUExampleScenario.rsu[0].appl 	varDiffCHutility 	4.5825756949558
scalar RSUExampleScenario.rsu[0].appl 	expectedCHutility 	342.90839820547
scalar RSUExampleScenario.rsu[0].appl 	meanExpectedCHutility 	21
scalar RSUExampleScenario.rsu[0].appl 	varExpectedCHutility 	4.5825756949558
