version 2
run statisticRVV-134-20150327-06:26:10-6856
attr c 15
attr configname statisticRVV
attr datetime 20150327-06:26:10
attr experiment statisticRVV
attr inifile omnetpp.ini
attr iterationvars "$sc=\"erlangen-medium.launchd.xml\", $p=1/15, $c=15"
attr iterationvars2 "$sc=\"erlangen-medium.launchd.xml\", $p=1/15, $c=15, $repetition=4"
attr measurement "$sc=\"erlangen-medium.launchd.xml\", $p=1/15, $c=15"
attr network RSUExampleScenario
attr p 1/15
attr processid 6856
attr repetition 4
attr replication #4
attr resultdir results
attr runnumber 134
attr sc "\"erlangen-medium.launchd.xml\""
attr seedset 134

scalar . 	c 	15
scalar RSUExampleScenario.node[0].veinsmobility 	startTime 	0.1
scalar RSUExampleScenario.node[0].veinsmobility 	totalTime 	264.4
scalar RSUExampleScenario.node[0].veinsmobility 	stopTime 	264.6
scalar RSUExampleScenario.node[0].veinsmobility 	minSpeed 	0.24945175286965
scalar RSUExampleScenario.node[0].veinsmobility 	maxSpeed 	13.999873422228
scalar RSUExampleScenario.node[0].veinsmobility 	totalDistance 	3409.3564651383
scalar RSUExampleScenario.node[0].veinsmobility 	totalCO2Emission 	693.01461540939
scalar RSUExampleScenario.node[1].veinsmobility 	startTime 	3.1
scalar RSUExampleScenario.node[1].veinsmobility 	totalTime 	265.3
scalar RSUExampleScenario.node[1].veinsmobility 	stopTime 	268.5
scalar RSUExampleScenario.node[1].veinsmobility 	minSpeed 	0.2569333906197
scalar RSUExampleScenario.node[1].veinsmobility 	maxSpeed 	13.99995180544
scalar RSUExampleScenario.node[1].veinsmobility 	totalDistance 	3409.5953058077
scalar RSUExampleScenario.node[1].veinsmobility 	totalCO2Emission 	691.05819207861
scalar RSUExampleScenario.node[2].veinsmobility 	startTime 	6.1
scalar RSUExampleScenario.node[2].veinsmobility 	totalTime 	266.1
scalar RSUExampleScenario.node[2].veinsmobility 	stopTime 	272.3
scalar RSUExampleScenario.node[2].veinsmobility 	minSpeed 	0.25841869557858
scalar RSUExampleScenario.node[2].veinsmobility 	maxSpeed 	13.999753976925
scalar RSUExampleScenario.node[2].veinsmobility 	totalDistance 	3409.5661075081
scalar RSUExampleScenario.node[2].veinsmobility 	totalCO2Emission 	691.80833420163
scalar RSUExampleScenario.node[3].veinsmobility 	startTime 	9.1
scalar RSUExampleScenario.node[3].veinsmobility 	totalTime 	266.4
scalar RSUExampleScenario.node[3].veinsmobility 	stopTime 	275.6
scalar RSUExampleScenario.node[3].veinsmobility 	minSpeed 	0.250665210773
scalar RSUExampleScenario.node[3].veinsmobility 	maxSpeed 	13.999999417644
scalar RSUExampleScenario.node[3].veinsmobility 	totalDistance 	3409.7034183108
scalar RSUExampleScenario.node[3].veinsmobility 	totalCO2Emission 	693.2758633435
scalar RSUExampleScenario.node[4].veinsmobility 	startTime 	12.1
scalar RSUExampleScenario.node[4].veinsmobility 	totalTime 	266.6
scalar RSUExampleScenario.node[4].veinsmobility 	stopTime 	278.8
scalar RSUExampleScenario.node[4].veinsmobility 	minSpeed 	0.25570127649978
scalar RSUExampleScenario.node[4].veinsmobility 	maxSpeed 	13.999906379643
scalar RSUExampleScenario.node[4].veinsmobility 	totalDistance 	3413.8003058713
scalar RSUExampleScenario.node[4].veinsmobility 	totalCO2Emission 	693.88500181581
scalar RSUExampleScenario.node[5].veinsmobility 	startTime 	15.1
scalar RSUExampleScenario.node[5].veinsmobility 	totalTime 	266.7
scalar RSUExampleScenario.node[5].veinsmobility 	stopTime 	281.9
scalar RSUExampleScenario.node[5].veinsmobility 	minSpeed 	0.25033492408041
scalar RSUExampleScenario.node[5].veinsmobility 	maxSpeed 	13.999866459654
scalar RSUExampleScenario.node[5].veinsmobility 	totalDistance 	3409.6581590387
scalar RSUExampleScenario.node[5].veinsmobility 	totalCO2Emission 	691.38142247899
scalar RSUExampleScenario.node[6].veinsmobility 	startTime 	18.1
scalar RSUExampleScenario.node[6].veinsmobility 	totalTime 	267
scalar RSUExampleScenario.node[6].veinsmobility 	stopTime 	285.2
scalar RSUExampleScenario.node[6].veinsmobility 	minSpeed 	0.25885420022346
scalar RSUExampleScenario.node[6].veinsmobility 	maxSpeed 	13.999942786186
scalar RSUExampleScenario.node[6].veinsmobility 	totalDistance 	3409.8029050421
scalar RSUExampleScenario.node[6].veinsmobility 	totalCO2Emission 	692.68130773297
scalar RSUExampleScenario.node[7].veinsmobility 	startTime 	21.1
scalar RSUExampleScenario.node[7].veinsmobility 	totalTime 	267
scalar RSUExampleScenario.node[7].veinsmobility 	stopTime 	288.2
scalar RSUExampleScenario.node[7].veinsmobility 	minSpeed 	0.25280468686344
scalar RSUExampleScenario.node[7].veinsmobility 	maxSpeed 	13.999989011995
scalar RSUExampleScenario.node[7].veinsmobility 	totalDistance 	3414.0629479255
scalar RSUExampleScenario.node[7].veinsmobility 	totalCO2Emission 	694.63113996538
scalar RSUExampleScenario.node[8].veinsmobility 	startTime 	24.1
scalar RSUExampleScenario.node[8].veinsmobility 	totalTime 	267.1
scalar RSUExampleScenario.node[8].veinsmobility 	stopTime 	291.3
scalar RSUExampleScenario.node[8].veinsmobility 	minSpeed 	0.25786709265225
scalar RSUExampleScenario.node[8].veinsmobility 	maxSpeed 	13.999998740822
scalar RSUExampleScenario.node[8].veinsmobility 	totalDistance 	3410.09302959
scalar RSUExampleScenario.node[8].veinsmobility 	totalCO2Emission 	692.01683133632
scalar RSUExampleScenario.node[9].veinsmobility 	startTime 	27.1
scalar RSUExampleScenario.node[9].veinsmobility 	totalTime 	267.1
scalar RSUExampleScenario.node[9].veinsmobility 	stopTime 	294.3
scalar RSUExampleScenario.node[9].veinsmobility 	minSpeed 	0.25905427889316
scalar RSUExampleScenario.node[9].veinsmobility 	maxSpeed 	13.999930611404
scalar RSUExampleScenario.node[9].veinsmobility 	totalDistance 	3413.5675815869
scalar RSUExampleScenario.node[9].veinsmobility 	totalCO2Emission 	693.12337290457
scalar RSUExampleScenario.node[10].veinsmobility 	startTime 	30.1
scalar RSUExampleScenario.node[10].veinsmobility 	totalTime 	267.1
scalar RSUExampleScenario.node[10].veinsmobility 	stopTime 	297.3
scalar RSUExampleScenario.node[10].veinsmobility 	minSpeed 	0.25326848167903
scalar RSUExampleScenario.node[10].veinsmobility 	maxSpeed 	13.999899498459
scalar RSUExampleScenario.node[10].veinsmobility 	totalDistance 	3409.2886992845
scalar RSUExampleScenario.node[10].veinsmobility 	totalCO2Emission 	689.02851396076
scalar RSUExampleScenario.node[11].veinsmobility 	startTime 	33.1
scalar RSUExampleScenario.node[11].veinsmobility 	totalTime 	267.1
scalar RSUExampleScenario.node[11].veinsmobility 	stopTime 	300.3
scalar RSUExampleScenario.node[11].veinsmobility 	minSpeed 	0.24899656201899
scalar RSUExampleScenario.node[11].veinsmobility 	maxSpeed 	13.999969728172
scalar RSUExampleScenario.node[11].veinsmobility 	totalDistance 	3413.5986475252
scalar RSUExampleScenario.node[11].veinsmobility 	totalCO2Emission 	695.44347397312
scalar RSUExampleScenario.node[12].veinsmobility 	startTime 	36.1
scalar RSUExampleScenario.node[12].veinsmobility 	totalTime 	267.1
scalar RSUExampleScenario.node[12].veinsmobility 	stopTime 	303.3
scalar RSUExampleScenario.node[12].veinsmobility 	minSpeed 	0.25755912234425
scalar RSUExampleScenario.node[12].veinsmobility 	maxSpeed 	13.999990472032
scalar RSUExampleScenario.node[12].veinsmobility 	totalDistance 	3409.4107264391
scalar RSUExampleScenario.node[12].veinsmobility 	totalCO2Emission 	692.98815514757
scalar RSUExampleScenario.node[13].veinsmobility 	startTime 	39.1
scalar RSUExampleScenario.node[13].veinsmobility 	totalTime 	267.1
scalar RSUExampleScenario.node[13].veinsmobility 	stopTime 	306.3
scalar RSUExampleScenario.node[13].veinsmobility 	minSpeed 	0.24854499084991
scalar RSUExampleScenario.node[13].veinsmobility 	maxSpeed 	13.999774120753
scalar RSUExampleScenario.node[13].veinsmobility 	totalDistance 	3413.3329818136
scalar RSUExampleScenario.node[13].veinsmobility 	totalCO2Emission 	692.44013054357
scalar RSUExampleScenario.node[14].veinsmobility 	startTime 	42.1
scalar RSUExampleScenario.node[14].veinsmobility 	totalTime 	267.1
scalar RSUExampleScenario.node[14].veinsmobility 	stopTime 	309.3
scalar RSUExampleScenario.node[14].veinsmobility 	minSpeed 	0.25308062928007
scalar RSUExampleScenario.node[14].veinsmobility 	maxSpeed 	13.99998478259
scalar RSUExampleScenario.node[14].veinsmobility 	totalDistance 	3409.2523200721
scalar RSUExampleScenario.node[14].veinsmobility 	totalCO2Emission 	686.68273681328
scalar RSUExampleScenario.node[15].veinsmobility 	startTime 	45.1
scalar RSUExampleScenario.node[15].veinsmobility 	totalTime 	267.1
scalar RSUExampleScenario.node[15].veinsmobility 	stopTime 	312.3
scalar RSUExampleScenario.node[15].veinsmobility 	minSpeed 	0.25044914399437
scalar RSUExampleScenario.node[15].veinsmobility 	maxSpeed 	13.99991056504
scalar RSUExampleScenario.node[15].veinsmobility 	totalDistance 	3413.6630121076
scalar RSUExampleScenario.node[15].veinsmobility 	totalCO2Emission 	691.99510736131
scalar RSUExampleScenario.node[16].veinsmobility 	startTime 	48.1
scalar RSUExampleScenario.node[16].veinsmobility 	totalTime 	267.1
scalar RSUExampleScenario.node[16].veinsmobility 	stopTime 	315.3
scalar RSUExampleScenario.node[16].veinsmobility 	minSpeed 	0.25254304909892
scalar RSUExampleScenario.node[16].veinsmobility 	maxSpeed 	13.999832592686
scalar RSUExampleScenario.node[16].veinsmobility 	totalDistance 	3409.3405340273
scalar RSUExampleScenario.node[16].veinsmobility 	totalCO2Emission 	690.68456159449
scalar RSUExampleScenario.node[17].veinsmobility 	startTime 	51.1
scalar RSUExampleScenario.node[17].veinsmobility 	totalTime 	267.1
scalar RSUExampleScenario.node[17].veinsmobility 	stopTime 	318.3
scalar RSUExampleScenario.node[17].veinsmobility 	minSpeed 	0.25290631793253
scalar RSUExampleScenario.node[17].veinsmobility 	maxSpeed 	13.999993787012
scalar RSUExampleScenario.node[17].veinsmobility 	totalDistance 	3413.7608584786
scalar RSUExampleScenario.node[17].veinsmobility 	totalCO2Emission 	689.80102596135
scalar RSUExampleScenario.node[18].veinsmobility 	startTime 	54.1
scalar RSUExampleScenario.node[18].veinsmobility 	totalTime 	267.1
scalar RSUExampleScenario.node[18].veinsmobility 	stopTime 	321.3
scalar RSUExampleScenario.node[18].veinsmobility 	minSpeed 	0.25413833658118
scalar RSUExampleScenario.node[18].veinsmobility 	maxSpeed 	13.999982311814
scalar RSUExampleScenario.node[18].veinsmobility 	totalDistance 	3409.3411152679
scalar RSUExampleScenario.node[18].veinsmobility 	totalCO2Emission 	694.51438765843
scalar RSUExampleScenario.node[19].veinsmobility 	startTime 	57.1
scalar RSUExampleScenario.node[19].veinsmobility 	totalTime 	267.1
scalar RSUExampleScenario.node[19].veinsmobility 	stopTime 	324.3
scalar RSUExampleScenario.node[19].veinsmobility 	minSpeed 	0.24850750237517
scalar RSUExampleScenario.node[19].veinsmobility 	maxSpeed 	13.999994299933
scalar RSUExampleScenario.node[19].veinsmobility 	totalDistance 	3413.7070799943
scalar RSUExampleScenario.node[19].veinsmobility 	totalCO2Emission 	690.58686459046
scalar RSUExampleScenario.node[20].veinsmobility 	startTime 	60.1
scalar RSUExampleScenario.node[20].veinsmobility 	totalTime 	267.1
scalar RSUExampleScenario.node[20].veinsmobility 	stopTime 	327.3
scalar RSUExampleScenario.node[20].veinsmobility 	minSpeed 	0.25274005605862
scalar RSUExampleScenario.node[20].veinsmobility 	maxSpeed 	13.999968985063
scalar RSUExampleScenario.node[20].veinsmobility 	totalDistance 	3409.3298025038
scalar RSUExampleScenario.node[20].veinsmobility 	totalCO2Emission 	692.63114226082
scalar RSUExampleScenario.node[21].veinsmobility 	startTime 	63.1
scalar RSUExampleScenario.node[21].veinsmobility 	totalTime 	267.1
scalar RSUExampleScenario.node[21].veinsmobility 	stopTime 	330.3
scalar RSUExampleScenario.node[21].veinsmobility 	minSpeed 	0.25233761922526
scalar RSUExampleScenario.node[21].veinsmobility 	maxSpeed 	13.999978226211
scalar RSUExampleScenario.node[21].veinsmobility 	totalDistance 	3413.5863379457
scalar RSUExampleScenario.node[21].veinsmobility 	totalCO2Emission 	693.41291785018
scalar RSUExampleScenario.node[22].veinsmobility 	startTime 	66.1
scalar RSUExampleScenario.node[22].veinsmobility 	totalTime 	267.1
scalar RSUExampleScenario.node[22].veinsmobility 	stopTime 	333.3
scalar RSUExampleScenario.node[22].veinsmobility 	minSpeed 	0.2484505937018
scalar RSUExampleScenario.node[22].veinsmobility 	maxSpeed 	13.999834205424
scalar RSUExampleScenario.node[22].veinsmobility 	totalDistance 	3410.0389940757
scalar RSUExampleScenario.node[22].veinsmobility 	totalCO2Emission 	691.67327024981
scalar RSUExampleScenario.node[23].veinsmobility 	startTime 	69.1
scalar RSUExampleScenario.node[23].veinsmobility 	totalTime 	267.1
scalar RSUExampleScenario.node[23].veinsmobility 	stopTime 	336.3
scalar RSUExampleScenario.node[23].veinsmobility 	minSpeed 	0.25866243735841
scalar RSUExampleScenario.node[23].veinsmobility 	maxSpeed 	13.9999380451
scalar RSUExampleScenario.node[23].veinsmobility 	totalDistance 	3413.5910947292
scalar RSUExampleScenario.node[23].veinsmobility 	totalCO2Emission 	691.36466962758
scalar RSUExampleScenario.node[24].veinsmobility 	startTime 	72.1
scalar RSUExampleScenario.node[24].veinsmobility 	totalTime 	267.2
scalar RSUExampleScenario.node[24].veinsmobility 	stopTime 	339.4
scalar RSUExampleScenario.node[24].veinsmobility 	minSpeed 	0.24803045089403
scalar RSUExampleScenario.node[24].veinsmobility 	maxSpeed 	13.99996081637
scalar RSUExampleScenario.node[24].veinsmobility 	totalDistance 	3409.646368282
scalar RSUExampleScenario.node[24].veinsmobility 	totalCO2Emission 	688.00349262042
scalar RSUExampleScenario.node[25].veinsmobility 	startTime 	75.1
scalar RSUExampleScenario.node[25].veinsmobility 	totalTime 	267.2
scalar RSUExampleScenario.node[25].veinsmobility 	stopTime 	342.4
scalar RSUExampleScenario.node[25].veinsmobility 	minSpeed 	0.24769846483273
scalar RSUExampleScenario.node[25].veinsmobility 	maxSpeed 	13.999951955297
scalar RSUExampleScenario.node[25].veinsmobility 	totalDistance 	3413.6147946045
scalar RSUExampleScenario.node[25].veinsmobility 	totalCO2Emission 	693.51025462569
scalar RSUExampleScenario.node[26].veinsmobility 	startTime 	78.1
scalar RSUExampleScenario.node[26].veinsmobility 	totalTime 	267.2
scalar RSUExampleScenario.node[26].veinsmobility 	stopTime 	345.4
scalar RSUExampleScenario.node[26].veinsmobility 	minSpeed 	0.25807823005971
scalar RSUExampleScenario.node[26].veinsmobility 	maxSpeed 	13.999985981837
scalar RSUExampleScenario.node[26].veinsmobility 	totalDistance 	3409.4759863827
scalar RSUExampleScenario.node[26].veinsmobility 	totalCO2Emission 	688.84024211467
scalar RSUExampleScenario.node[27].veinsmobility 	startTime 	81.1
scalar RSUExampleScenario.node[27].veinsmobility 	totalTime 	267.2
scalar RSUExampleScenario.node[27].veinsmobility 	stopTime 	348.4
scalar RSUExampleScenario.node[27].veinsmobility 	minSpeed 	0.25794203071645
scalar RSUExampleScenario.node[27].veinsmobility 	maxSpeed 	13.999911640128
scalar RSUExampleScenario.node[27].veinsmobility 	totalDistance 	3413.4022964271
scalar RSUExampleScenario.node[27].veinsmobility 	totalCO2Emission 	688.32700787171
scalar RSUExampleScenario.node[28].veinsmobility 	startTime 	84.1
scalar RSUExampleScenario.node[28].veinsmobility 	totalTime 	267.2
scalar RSUExampleScenario.node[28].veinsmobility 	stopTime 	351.4
scalar RSUExampleScenario.node[28].veinsmobility 	minSpeed 	0.25953405229235
scalar RSUExampleScenario.node[28].veinsmobility 	maxSpeed 	13.999960444286
scalar RSUExampleScenario.node[28].veinsmobility 	totalDistance 	3409.5293964686
scalar RSUExampleScenario.node[28].veinsmobility 	totalCO2Emission 	690.08646358072
scalar RSUExampleScenario.node[29].veinsmobility 	startTime 	87.1
scalar RSUExampleScenario.node[29].veinsmobility 	totalTime 	267.2
scalar RSUExampleScenario.node[29].veinsmobility 	stopTime 	354.4
scalar RSUExampleScenario.node[29].veinsmobility 	minSpeed 	0.25045033352007
scalar RSUExampleScenario.node[29].veinsmobility 	maxSpeed 	13.999971237697
scalar RSUExampleScenario.node[29].veinsmobility 	totalDistance 	3413.4613101351
scalar RSUExampleScenario.node[29].veinsmobility 	totalCO2Emission 	693.28098297296
scalar RSUExampleScenario.node[30].veinsmobility 	startTime 	90.1
scalar RSUExampleScenario.node[30].veinsmobility 	totalTime 	267.3
scalar RSUExampleScenario.node[30].veinsmobility 	stopTime 	357.5
scalar RSUExampleScenario.node[30].veinsmobility 	minSpeed 	0.25209349526372
scalar RSUExampleScenario.node[30].veinsmobility 	maxSpeed 	13.999985166115
scalar RSUExampleScenario.node[30].veinsmobility 	totalDistance 	3410.0997386173
scalar RSUExampleScenario.node[30].veinsmobility 	totalCO2Emission 	690.01864882835
scalar RSUExampleScenario.node[31].veinsmobility 	startTime 	93.1
scalar RSUExampleScenario.node[31].veinsmobility 	totalTime 	267.4
scalar RSUExampleScenario.node[31].veinsmobility 	stopTime 	360.6
scalar RSUExampleScenario.node[31].veinsmobility 	minSpeed 	0.25547780284588
scalar RSUExampleScenario.node[31].veinsmobility 	maxSpeed 	13.999859555042
scalar RSUExampleScenario.node[31].veinsmobility 	totalDistance 	3413.9354663799
scalar RSUExampleScenario.node[31].veinsmobility 	totalCO2Emission 	689.78529872402
scalar RSUExampleScenario.node[32].veinsmobility 	startTime 	96.1
scalar RSUExampleScenario.node[32].veinsmobility 	totalTime 	267.5
scalar RSUExampleScenario.node[32].veinsmobility 	stopTime 	363.7
scalar RSUExampleScenario.node[32].veinsmobility 	minSpeed 	0.2516575754208
scalar RSUExampleScenario.node[32].veinsmobility 	maxSpeed 	13.999993131044
scalar RSUExampleScenario.node[32].veinsmobility 	totalDistance 	3409.4310414027
scalar RSUExampleScenario.node[32].veinsmobility 	totalCO2Emission 	688.71304363121
scalar RSUExampleScenario.node[33].veinsmobility 	startTime 	99.1
scalar RSUExampleScenario.node[33].veinsmobility 	totalTime 	267.6
scalar RSUExampleScenario.node[33].veinsmobility 	stopTime 	366.8
scalar RSUExampleScenario.node[33].veinsmobility 	minSpeed 	0.25571338230395
scalar RSUExampleScenario.node[33].veinsmobility 	maxSpeed 	13.999912714278
scalar RSUExampleScenario.node[33].veinsmobility 	totalDistance 	3413.5251003132
scalar RSUExampleScenario.node[33].veinsmobility 	totalCO2Emission 	696.84140510178
scalar RSUExampleScenario.node[34].veinsmobility 	startTime 	102.1
scalar RSUExampleScenario.node[34].veinsmobility 	totalTime 	267.7
scalar RSUExampleScenario.node[34].veinsmobility 	stopTime 	369.9
scalar RSUExampleScenario.node[34].veinsmobility 	minSpeed 	0.2510138997247
scalar RSUExampleScenario.node[34].veinsmobility 	maxSpeed 	13.999965862436
scalar RSUExampleScenario.node[34].veinsmobility 	totalDistance 	3410.0349354275
scalar RSUExampleScenario.node[34].veinsmobility 	totalCO2Emission 	693.09674422731
scalar RSUExampleScenario.node[35].veinsmobility 	startTime 	105.1
scalar RSUExampleScenario.node[35].veinsmobility 	totalTime 	267.8
scalar RSUExampleScenario.node[35].veinsmobility 	stopTime 	373
scalar RSUExampleScenario.node[35].veinsmobility 	minSpeed 	0.25768775831466
scalar RSUExampleScenario.node[35].veinsmobility 	maxSpeed 	13.999978219795
scalar RSUExampleScenario.node[35].veinsmobility 	totalDistance 	3413.6561351275
scalar RSUExampleScenario.node[35].veinsmobility 	totalCO2Emission 	691.50110600973
scalar RSUExampleScenario.node[36].veinsmobility 	startTime 	108.1
scalar RSUExampleScenario.node[36].veinsmobility 	totalTime 	268
scalar RSUExampleScenario.node[36].veinsmobility 	stopTime 	376.2
scalar RSUExampleScenario.node[36].veinsmobility 	minSpeed 	0.24805279137497
scalar RSUExampleScenario.node[36].veinsmobility 	maxSpeed 	13.999871509958
scalar RSUExampleScenario.node[36].veinsmobility 	totalDistance 	3410.0125174607
scalar RSUExampleScenario.node[36].veinsmobility 	totalCO2Emission 	693.01281603223
scalar RSUExampleScenario.node[37].veinsmobility 	startTime 	111.1
scalar RSUExampleScenario.node[37].veinsmobility 	totalTime 	268.1
scalar RSUExampleScenario.node[37].veinsmobility 	stopTime 	379.3
scalar RSUExampleScenario.node[37].veinsmobility 	minSpeed 	0.25146709987125
scalar RSUExampleScenario.node[37].veinsmobility 	maxSpeed 	13.999912152172
scalar RSUExampleScenario.node[37].veinsmobility 	totalDistance 	3413.7374647609
scalar RSUExampleScenario.node[37].veinsmobility 	totalCO2Emission 	689.39942642078
scalar RSUExampleScenario.node[38].veinsmobility 	startTime 	114.1
scalar RSUExampleScenario.node[38].veinsmobility 	totalTime 	268.3
scalar RSUExampleScenario.node[38].veinsmobility 	stopTime 	382.5
scalar RSUExampleScenario.node[38].veinsmobility 	minSpeed 	0.25517400292121
scalar RSUExampleScenario.node[38].veinsmobility 	maxSpeed 	13.999699912313
scalar RSUExampleScenario.node[38].veinsmobility 	totalDistance 	3409.8654432447
scalar RSUExampleScenario.node[38].veinsmobility 	totalCO2Emission 	689.89595238178
scalar RSUExampleScenario.node[39].veinsmobility 	startTime 	117.1
scalar RSUExampleScenario.node[39].veinsmobility 	totalTime 	268.5
scalar RSUExampleScenario.node[39].veinsmobility 	stopTime 	385.7
scalar RSUExampleScenario.node[39].veinsmobility 	minSpeed 	0.24705342082703
scalar RSUExampleScenario.node[39].veinsmobility 	maxSpeed 	13.99996976628
scalar RSUExampleScenario.node[39].veinsmobility 	totalDistance 	3414.1883352442
scalar RSUExampleScenario.node[39].veinsmobility 	totalCO2Emission 	690.12856686144
scalar RSUExampleScenario.node[40].veinsmobility 	startTime 	120.1
scalar RSUExampleScenario.node[40].veinsmobility 	totalTime 	268.8
scalar RSUExampleScenario.node[40].veinsmobility 	stopTime 	389
scalar RSUExampleScenario.node[40].veinsmobility 	minSpeed 	0.24777405910078
scalar RSUExampleScenario.node[40].veinsmobility 	maxSpeed 	13.999998887409
scalar RSUExampleScenario.node[40].veinsmobility 	totalDistance 	3409.9412273701
scalar RSUExampleScenario.node[40].veinsmobility 	totalCO2Emission 	693.06729170595
scalar RSUExampleScenario.node[41].veinsmobility 	startTime 	123.1
scalar RSUExampleScenario.node[41].veinsmobility 	totalTime 	269.2
scalar RSUExampleScenario.node[41].veinsmobility 	stopTime 	392.4
scalar RSUExampleScenario.node[41].veinsmobility 	minSpeed 	0.25265852492535
scalar RSUExampleScenario.node[41].veinsmobility 	maxSpeed 	13.999882279639
scalar RSUExampleScenario.node[41].veinsmobility 	totalDistance 	3414.1658685155
scalar RSUExampleScenario.node[41].veinsmobility 	totalCO2Emission 	692.46069073987
scalar RSUExampleScenario.node[42].veinsmobility 	startTime 	126.1
scalar RSUExampleScenario.node[42].veinsmobility 	totalTime 	269.7
scalar RSUExampleScenario.node[42].veinsmobility 	stopTime 	395.9
scalar RSUExampleScenario.node[42].veinsmobility 	minSpeed 	0.2594959616058
scalar RSUExampleScenario.node[42].veinsmobility 	maxSpeed 	13.999941933597
scalar RSUExampleScenario.node[42].veinsmobility 	totalDistance 	3409.7648116806
scalar RSUExampleScenario.node[42].veinsmobility 	totalCO2Emission 	692.79967754193
scalar RSUExampleScenario.node[43].veinsmobility 	startTime 	129.1
scalar RSUExampleScenario.node[43].veinsmobility 	totalTime 	270.2
scalar RSUExampleScenario.node[43].veinsmobility 	stopTime 	399.4
scalar RSUExampleScenario.node[43].veinsmobility 	minSpeed 	0.24933561989199
scalar RSUExampleScenario.node[43].veinsmobility 	maxSpeed 	13.999767585713
scalar RSUExampleScenario.node[43].veinsmobility 	totalDistance 	3414.0318000338
scalar RSUExampleScenario.node[43].veinsmobility 	totalCO2Emission 	694.77547160376
scalar RSUExampleScenario.node[44].veinsmobility 	startTime 	132.1
scalar RSUExampleScenario.node[44].veinsmobility 	totalTime 	270.7
scalar RSUExampleScenario.node[44].veinsmobility 	stopTime 	402.9
scalar RSUExampleScenario.node[44].veinsmobility 	minSpeed 	0.24890724341478
scalar RSUExampleScenario.node[44].veinsmobility 	maxSpeed 	13.999959051928
scalar RSUExampleScenario.node[44].veinsmobility 	totalDistance 	3409.6416025433
scalar RSUExampleScenario.node[44].veinsmobility 	totalCO2Emission 	690.70812879669
scalar RSUExampleScenario.node[45].veinsmobility 	startTime 	135.1
scalar RSUExampleScenario.node[45].veinsmobility 	totalTime 	271.4
scalar RSUExampleScenario.node[45].veinsmobility 	stopTime 	406.6
scalar RSUExampleScenario.node[45].veinsmobility 	minSpeed 	0.24756476096064
scalar RSUExampleScenario.node[45].veinsmobility 	maxSpeed 	13.999929297925
scalar RSUExampleScenario.node[45].veinsmobility 	totalDistance 	3414.2879303135
scalar RSUExampleScenario.node[45].veinsmobility 	totalCO2Emission 	694.02171725384
scalar RSUExampleScenario.node[46].veinsmobility 	startTime 	138.1
scalar RSUExampleScenario.node[46].veinsmobility 	totalTime 	272.1
scalar RSUExampleScenario.node[46].veinsmobility 	stopTime 	410.3
scalar RSUExampleScenario.node[46].veinsmobility 	minSpeed 	0.25272839470045
scalar RSUExampleScenario.node[46].veinsmobility 	maxSpeed 	13.999973922619
scalar RSUExampleScenario.node[46].veinsmobility 	totalDistance 	3409.7595979138
scalar RSUExampleScenario.node[46].veinsmobility 	totalCO2Emission 	695.86391234363
scalar RSUExampleScenario.node[47].veinsmobility 	startTime 	141.1
scalar RSUExampleScenario.node[47].veinsmobility 	totalTime 	272.7
scalar RSUExampleScenario.node[47].veinsmobility 	stopTime 	413.9
scalar RSUExampleScenario.node[47].veinsmobility 	minSpeed 	0.25984570496692
scalar RSUExampleScenario.node[47].veinsmobility 	maxSpeed 	13.999952270205
scalar RSUExampleScenario.node[47].veinsmobility 	totalDistance 	3413.6368245357
scalar RSUExampleScenario.node[47].veinsmobility 	totalCO2Emission 	695.63882373304
scalar RSUExampleScenario.node[48].veinsmobility 	startTime 	144.1
scalar RSUExampleScenario.node[48].veinsmobility 	totalTime 	273.3
scalar RSUExampleScenario.node[48].veinsmobility 	stopTime 	417.5
scalar RSUExampleScenario.node[48].veinsmobility 	minSpeed 	0.25348962810938
scalar RSUExampleScenario.node[48].veinsmobility 	maxSpeed 	13.999940031436
scalar RSUExampleScenario.node[48].veinsmobility 	totalDistance 	3410.0666859012
scalar RSUExampleScenario.node[48].veinsmobility 	totalCO2Emission 	698.72524516841
scalar RSUExampleScenario.node[49].veinsmobility 	startTime 	147.1
scalar RSUExampleScenario.node[49].veinsmobility 	totalTime 	273.9
scalar RSUExampleScenario.node[49].veinsmobility 	stopTime 	421.1
scalar RSUExampleScenario.node[49].veinsmobility 	minSpeed 	0.25663093395485
scalar RSUExampleScenario.node[49].veinsmobility 	maxSpeed 	13.999818929415
scalar RSUExampleScenario.node[49].veinsmobility 	totalDistance 	3413.7006270786
scalar RSUExampleScenario.node[49].veinsmobility 	totalCO2Emission 	695.80844387335
scalar RSUExampleScenario.node[50].veinsmobility 	startTime 	150.1
scalar RSUExampleScenario.node[50].veinsmobility 	totalTime 	274.6
scalar RSUExampleScenario.node[50].veinsmobility 	stopTime 	424.8
scalar RSUExampleScenario.node[50].veinsmobility 	minSpeed 	0.25976105677919
scalar RSUExampleScenario.node[50].veinsmobility 	maxSpeed 	13.99993723637
scalar RSUExampleScenario.node[50].veinsmobility 	totalDistance 	3410.1244484965
scalar RSUExampleScenario.node[50].veinsmobility 	totalCO2Emission 	700.49417389493
scalar RSUExampleScenario.node[51].veinsmobility 	startTime 	153.1
scalar RSUExampleScenario.node[51].veinsmobility 	totalTime 	275.3
scalar RSUExampleScenario.node[51].veinsmobility 	stopTime 	428.5
scalar RSUExampleScenario.node[51].veinsmobility 	minSpeed 	0.25512437243573
scalar RSUExampleScenario.node[51].veinsmobility 	maxSpeed 	13.999989501489
scalar RSUExampleScenario.node[51].veinsmobility 	totalDistance 	3413.7311129024
scalar RSUExampleScenario.node[51].veinsmobility 	totalCO2Emission 	691.97012256951
scalar RSUExampleScenario.node[52].veinsmobility 	startTime 	156.1
scalar RSUExampleScenario.node[52].veinsmobility 	totalTime 	275.9
scalar RSUExampleScenario.node[52].veinsmobility 	stopTime 	432.1
scalar RSUExampleScenario.node[52].veinsmobility 	minSpeed 	0.24951640501339
scalar RSUExampleScenario.node[52].veinsmobility 	maxSpeed 	13.999920891779
scalar RSUExampleScenario.node[52].veinsmobility 	totalDistance 	3409.5460527345
scalar RSUExampleScenario.node[52].veinsmobility 	totalCO2Emission 	693.66596861834
scalar RSUExampleScenario.node[53].veinsmobility 	startTime 	159.1
scalar RSUExampleScenario.node[53].veinsmobility 	totalTime 	276.6
scalar RSUExampleScenario.node[53].veinsmobility 	stopTime 	435.8
scalar RSUExampleScenario.node[53].veinsmobility 	minSpeed 	0.25954634888167
scalar RSUExampleScenario.node[53].veinsmobility 	maxSpeed 	13.99999893148
scalar RSUExampleScenario.node[53].veinsmobility 	totalDistance 	3410.0584962366
scalar RSUExampleScenario.node[53].veinsmobility 	totalCO2Emission 	698.22245083653
scalar RSUExampleScenario.node[54].veinsmobility 	startTime 	162.1
scalar RSUExampleScenario.node[54].veinsmobility 	totalTime 	277.3
scalar RSUExampleScenario.node[54].veinsmobility 	stopTime 	439.5
scalar RSUExampleScenario.node[54].veinsmobility 	minSpeed 	0.24975734306988
scalar RSUExampleScenario.node[54].veinsmobility 	maxSpeed 	13.999990443278
scalar RSUExampleScenario.node[54].veinsmobility 	totalDistance 	3413.7328013842
scalar RSUExampleScenario.node[54].veinsmobility 	totalCO2Emission 	698.06412244237
scalar RSUExampleScenario.node[55].veinsmobility 	startTime 	165.1
scalar RSUExampleScenario.node[55].veinsmobility 	totalTime 	277.9
scalar RSUExampleScenario.node[55].veinsmobility 	stopTime 	443.1
scalar RSUExampleScenario.node[55].veinsmobility 	minSpeed 	0.24802938568499
scalar RSUExampleScenario.node[55].veinsmobility 	maxSpeed 	13.999955664184
scalar RSUExampleScenario.node[55].veinsmobility 	totalDistance 	3409.5832084404
scalar RSUExampleScenario.node[55].veinsmobility 	totalCO2Emission 	702.16587618134
scalar RSUExampleScenario.node[56].veinsmobility 	startTime 	168.1
scalar RSUExampleScenario.node[56].veinsmobility 	totalTime 	278.6
scalar RSUExampleScenario.node[56].veinsmobility 	stopTime 	446.8
scalar RSUExampleScenario.node[56].veinsmobility 	minSpeed 	0.25574206459941
scalar RSUExampleScenario.node[56].veinsmobility 	maxSpeed 	13.999950967047
scalar RSUExampleScenario.node[56].veinsmobility 	totalDistance 	3414.0147103018
scalar RSUExampleScenario.node[56].veinsmobility 	totalCO2Emission 	698.50462982491
scalar RSUExampleScenario.node[57].veinsmobility 	startTime 	171.1
scalar RSUExampleScenario.node[57].veinsmobility 	totalTime 	279.2
scalar RSUExampleScenario.node[57].veinsmobility 	stopTime 	450.4
scalar RSUExampleScenario.node[57].veinsmobility 	minSpeed 	0.25598896214948
scalar RSUExampleScenario.node[57].veinsmobility 	maxSpeed 	13.999996114681
scalar RSUExampleScenario.node[57].veinsmobility 	totalDistance 	3409.5471577034
scalar RSUExampleScenario.node[57].veinsmobility 	totalCO2Emission 	702.30241389088
scalar RSUExampleScenario.node[58].veinsmobility 	startTime 	174.1
scalar RSUExampleScenario.node[58].veinsmobility 	totalTime 	279.9
scalar RSUExampleScenario.node[58].veinsmobility 	stopTime 	454.1
scalar RSUExampleScenario.node[58].veinsmobility 	minSpeed 	0.25162911804672
scalar RSUExampleScenario.node[58].veinsmobility 	maxSpeed 	13.99961814956
scalar RSUExampleScenario.node[58].veinsmobility 	totalDistance 	3413.7927416283
scalar RSUExampleScenario.node[58].veinsmobility 	totalCO2Emission 	703.15729372049
scalar RSUExampleScenario.node[59].veinsmobility 	startTime 	177.1
scalar RSUExampleScenario.node[59].veinsmobility 	totalTime 	280.5
scalar RSUExampleScenario.node[59].veinsmobility 	stopTime 	457.7
scalar RSUExampleScenario.node[59].veinsmobility 	minSpeed 	0.24971087741083
scalar RSUExampleScenario.node[59].veinsmobility 	maxSpeed 	13.999946821907
scalar RSUExampleScenario.node[59].veinsmobility 	totalDistance 	3409.4643755787
scalar RSUExampleScenario.node[59].veinsmobility 	totalCO2Emission 	704.47993230086
scalar RSUExampleScenario.node[60].veinsmobility 	startTime 	180.1
scalar RSUExampleScenario.node[60].veinsmobility 	totalTime 	281.1
scalar RSUExampleScenario.node[60].veinsmobility 	stopTime 	461.3
scalar RSUExampleScenario.node[60].veinsmobility 	minSpeed 	0.25639107745211
scalar RSUExampleScenario.node[60].veinsmobility 	maxSpeed 	13.99995780973
scalar RSUExampleScenario.node[60].veinsmobility 	totalDistance 	3413.7719348444
scalar RSUExampleScenario.node[60].veinsmobility 	totalCO2Emission 	701.55074567078
scalar RSUExampleScenario.node[61].veinsmobility 	startTime 	183.1
scalar RSUExampleScenario.node[61].veinsmobility 	totalTime 	281.8
scalar RSUExampleScenario.node[61].veinsmobility 	stopTime 	465
scalar RSUExampleScenario.node[61].veinsmobility 	minSpeed 	0.25099426946626
scalar RSUExampleScenario.node[61].veinsmobility 	maxSpeed 	13.999957945906
scalar RSUExampleScenario.node[61].veinsmobility 	totalDistance 	3409.9496869285
scalar RSUExampleScenario.node[61].veinsmobility 	totalCO2Emission 	707.12037841734
scalar RSUExampleScenario.node[62].veinsmobility 	startTime 	186.1
scalar RSUExampleScenario.node[62].veinsmobility 	totalTime 	282.5
scalar RSUExampleScenario.node[62].veinsmobility 	stopTime 	468.7
scalar RSUExampleScenario.node[62].veinsmobility 	minSpeed 	0.25580695606605
scalar RSUExampleScenario.node[62].veinsmobility 	maxSpeed 	13.999843290905
scalar RSUExampleScenario.node[62].veinsmobility 	totalDistance 	3414.2845793651
scalar RSUExampleScenario.node[62].veinsmobility 	totalCO2Emission 	704.67985121849
scalar RSUExampleScenario.node[63].veinsmobility 	startTime 	189.1
scalar RSUExampleScenario.node[63].veinsmobility 	totalTime 	283.2
scalar RSUExampleScenario.node[63].veinsmobility 	stopTime 	472.4
scalar RSUExampleScenario.node[63].veinsmobility 	minSpeed 	0.25461432136409
scalar RSUExampleScenario.node[63].veinsmobility 	maxSpeed 	13.999866591562
scalar RSUExampleScenario.node[63].veinsmobility 	totalDistance 	3409.9181587858
scalar RSUExampleScenario.node[63].veinsmobility 	totalCO2Emission 	706.33031919019
scalar RSUExampleScenario.node[64].veinsmobility 	startTime 	192.1
scalar RSUExampleScenario.node[64].veinsmobility 	totalTime 	284
scalar RSUExampleScenario.node[64].veinsmobility 	stopTime 	476.2
scalar RSUExampleScenario.node[64].veinsmobility 	minSpeed 	0.25914791638753
scalar RSUExampleScenario.node[64].veinsmobility 	maxSpeed 	13.999924058022
scalar RSUExampleScenario.node[64].veinsmobility 	totalDistance 	3414.1746801873
scalar RSUExampleScenario.node[64].veinsmobility 	totalCO2Emission 	708.30347275219
scalar RSUExampleScenario.node[65].veinsmobility 	startTime 	195.1
scalar RSUExampleScenario.node[65].veinsmobility 	totalTime 	284.7
scalar RSUExampleScenario.node[65].veinsmobility 	stopTime 	479.9
scalar RSUExampleScenario.node[65].veinsmobility 	minSpeed 	0.2573486087115
scalar RSUExampleScenario.node[65].veinsmobility 	maxSpeed 	13.999995901473
scalar RSUExampleScenario.node[65].veinsmobility 	totalDistance 	3409.9820734839
scalar RSUExampleScenario.node[65].veinsmobility 	totalCO2Emission 	707.46419381256
scalar RSUExampleScenario.node[66].veinsmobility 	startTime 	198.1
scalar RSUExampleScenario.node[66].veinsmobility 	totalTime 	285.4
scalar RSUExampleScenario.node[66].veinsmobility 	stopTime 	483.6
scalar RSUExampleScenario.node[66].veinsmobility 	minSpeed 	0.25062164273462
scalar RSUExampleScenario.node[66].veinsmobility 	maxSpeed 	13.999895718775
scalar RSUExampleScenario.node[66].veinsmobility 	totalDistance 	3414.1679553976
scalar RSUExampleScenario.node[66].veinsmobility 	totalCO2Emission 	704.40423882872
scalar RSUExampleScenario.node[67].veinsmobility 	startTime 	201.1
scalar RSUExampleScenario.node[67].veinsmobility 	totalTime 	286.1
scalar RSUExampleScenario.node[67].veinsmobility 	stopTime 	487.3
scalar RSUExampleScenario.node[67].veinsmobility 	minSpeed 	0.25119026255445
scalar RSUExampleScenario.node[67].veinsmobility 	maxSpeed 	13.999951710489
scalar RSUExampleScenario.node[67].veinsmobility 	totalDistance 	3409.5302952908
scalar RSUExampleScenario.node[67].veinsmobility 	totalCO2Emission 	706.98925883431
scalar RSUExampleScenario.node[68].veinsmobility 	startTime 	204.1
scalar RSUExampleScenario.node[68].veinsmobility 	totalTime 	286.8
scalar RSUExampleScenario.node[68].veinsmobility 	stopTime 	491
scalar RSUExampleScenario.node[68].veinsmobility 	minSpeed 	0.25624501392432
scalar RSUExampleScenario.node[68].veinsmobility 	maxSpeed 	13.999995042589
scalar RSUExampleScenario.node[68].veinsmobility 	totalDistance 	3409.4277735372
scalar RSUExampleScenario.node[68].veinsmobility 	totalCO2Emission 	708.97498077755
scalar RSUExampleScenario.node[69].veinsmobility 	startTime 	207.1
scalar RSUExampleScenario.node[69].veinsmobility 	totalTime 	287.5
scalar RSUExampleScenario.node[69].veinsmobility 	stopTime 	494.7
scalar RSUExampleScenario.node[69].veinsmobility 	minSpeed 	0.2562959099838
scalar RSUExampleScenario.node[69].veinsmobility 	maxSpeed 	13.999995717322
scalar RSUExampleScenario.node[69].veinsmobility 	totalDistance 	3413.9226603035
scalar RSUExampleScenario.node[69].veinsmobility 	totalCO2Emission 	708.23485849424
scalar RSUExampleScenario.node[70].veinsmobility 	startTime 	210.1
scalar RSUExampleScenario.node[70].veinsmobility 	totalTime 	288.1
scalar RSUExampleScenario.node[70].veinsmobility 	stopTime 	498.3
scalar RSUExampleScenario.node[70].veinsmobility 	minSpeed 	0.25376733901771
scalar RSUExampleScenario.node[70].veinsmobility 	maxSpeed 	13.999727564114
scalar RSUExampleScenario.node[70].veinsmobility 	totalDistance 	3409.5409552163
scalar RSUExampleScenario.node[70].veinsmobility 	totalCO2Emission 	709.83550533559
scalar RSUExampleScenario.node[71].veinsmobility 	startTime 	213.1
scalar RSUExampleScenario.node[71].veinsmobility 	totalTime 	288.7
scalar RSUExampleScenario.node[71].veinsmobility 	stopTime 	501.9
scalar RSUExampleScenario.node[71].veinsmobility 	minSpeed 	0.25418282302585
scalar RSUExampleScenario.node[71].veinsmobility 	maxSpeed 	13.999970231105
scalar RSUExampleScenario.node[71].veinsmobility 	totalDistance 	3413.7396726965
scalar RSUExampleScenario.node[71].veinsmobility 	totalCO2Emission 	712.73943184979
scalar RSUExampleScenario.node[72].veinsmobility 	startTime 	216.1
scalar RSUExampleScenario.node[72].veinsmobility 	totalTime 	289.4
scalar RSUExampleScenario.node[72].veinsmobility 	stopTime 	505.6
scalar RSUExampleScenario.node[72].veinsmobility 	minSpeed 	0.25265159844235
scalar RSUExampleScenario.node[72].veinsmobility 	maxSpeed 	13.999667505624
scalar RSUExampleScenario.node[72].veinsmobility 	totalDistance 	3409.588687581
scalar RSUExampleScenario.node[72].veinsmobility 	totalCO2Emission 	708.6112457813
scalar RSUExampleScenario.node[73].veinsmobility 	startTime 	219.1
scalar RSUExampleScenario.node[73].veinsmobility 	totalTime 	290.1
scalar RSUExampleScenario.node[73].veinsmobility 	stopTime 	509.3
scalar RSUExampleScenario.node[73].veinsmobility 	minSpeed 	0.2490691399856
scalar RSUExampleScenario.node[73].veinsmobility 	maxSpeed 	13.999944706175
scalar RSUExampleScenario.node[73].veinsmobility 	totalDistance 	3414.0119207322
scalar RSUExampleScenario.node[73].veinsmobility 	totalCO2Emission 	710.2795478106
scalar RSUExampleScenario.node[74].veinsmobility 	startTime 	222.1
scalar RSUExampleScenario.node[74].veinsmobility 	totalTime 	290.8
scalar RSUExampleScenario.node[74].veinsmobility 	stopTime 	513
scalar RSUExampleScenario.node[74].veinsmobility 	minSpeed 	0.24802148963977
scalar RSUExampleScenario.node[74].veinsmobility 	maxSpeed 	13.999817141001
scalar RSUExampleScenario.node[74].veinsmobility 	totalDistance 	3409.5172737123
scalar RSUExampleScenario.node[74].veinsmobility 	totalCO2Emission 	711.08552124722
scalar RSUExampleScenario.node[75].veinsmobility 	startTime 	225.1
scalar RSUExampleScenario.node[75].veinsmobility 	totalTime 	291.5
scalar RSUExampleScenario.node[75].veinsmobility 	stopTime 	516.7
scalar RSUExampleScenario.node[75].veinsmobility 	minSpeed 	0.24735812653927
scalar RSUExampleScenario.node[75].veinsmobility 	maxSpeed 	13.999892984305
scalar RSUExampleScenario.node[75].veinsmobility 	totalDistance 	3414.0720076912
scalar RSUExampleScenario.node[75].veinsmobility 	totalCO2Emission 	714.07203748163
scalar RSUExampleScenario.node[76].veinsmobility 	startTime 	228.1
scalar RSUExampleScenario.node[76].veinsmobility 	totalTime 	292.2
scalar RSUExampleScenario.node[76].veinsmobility 	stopTime 	520.4
scalar RSUExampleScenario.node[76].veinsmobility 	minSpeed 	0.25615538451634
scalar RSUExampleScenario.node[76].veinsmobility 	maxSpeed 	13.999906712046
scalar RSUExampleScenario.node[76].veinsmobility 	totalDistance 	3409.882361584
scalar RSUExampleScenario.node[76].veinsmobility 	totalCO2Emission 	715.48983597487
scalar RSUExampleScenario.node[77].veinsmobility 	startTime 	231.1
scalar RSUExampleScenario.node[77].veinsmobility 	totalTime 	292.9
scalar RSUExampleScenario.node[77].veinsmobility 	stopTime 	524.1
scalar RSUExampleScenario.node[77].veinsmobility 	minSpeed 	0.25644599326933
scalar RSUExampleScenario.node[77].veinsmobility 	maxSpeed 	13.999980491528
scalar RSUExampleScenario.node[77].veinsmobility 	totalDistance 	3414.3602111677
scalar RSUExampleScenario.node[77].veinsmobility 	totalCO2Emission 	717.00913464001
scalar RSUExampleScenario.node[78].veinsmobility 	startTime 	234.1
scalar RSUExampleScenario.node[78].veinsmobility 	totalTime 	293.6
scalar RSUExampleScenario.node[78].veinsmobility 	stopTime 	527.8
scalar RSUExampleScenario.node[78].veinsmobility 	minSpeed 	0.25647404278535
scalar RSUExampleScenario.node[78].veinsmobility 	maxSpeed 	13.99997246349
scalar RSUExampleScenario.node[78].veinsmobility 	totalDistance 	3409.6110836785
scalar RSUExampleScenario.node[78].veinsmobility 	totalCO2Emission 	712.90641138422
scalar RSUExampleScenario.node[79].veinsmobility 	startTime 	237.1
scalar RSUExampleScenario.node[79].veinsmobility 	totalTime 	294.3
scalar RSUExampleScenario.node[79].veinsmobility 	stopTime 	531.5
scalar RSUExampleScenario.node[79].veinsmobility 	minSpeed 	0.25720319785527
scalar RSUExampleScenario.node[79].veinsmobility 	maxSpeed 	13.999935630502
scalar RSUExampleScenario.node[79].veinsmobility 	totalDistance 	3414.3404906505
scalar RSUExampleScenario.node[79].veinsmobility 	totalCO2Emission 	721.27485196601
scalar RSUExampleScenario.node[80].veinsmobility 	startTime 	240.1
scalar RSUExampleScenario.node[80].veinsmobility 	totalTime 	295
scalar RSUExampleScenario.node[80].veinsmobility 	stopTime 	535.2
scalar RSUExampleScenario.node[80].veinsmobility 	minSpeed 	0.24829855946917
scalar RSUExampleScenario.node[80].veinsmobility 	maxSpeed 	13.999855460813
scalar RSUExampleScenario.node[80].veinsmobility 	totalDistance 	3409.4581600862
scalar RSUExampleScenario.node[80].veinsmobility 	totalCO2Emission 	717.05606600354
scalar RSUExampleScenario.node[81].veinsmobility 	startTime 	243.1
scalar RSUExampleScenario.node[81].veinsmobility 	totalTime 	295.6
scalar RSUExampleScenario.node[81].veinsmobility 	stopTime 	538.8
scalar RSUExampleScenario.node[81].veinsmobility 	minSpeed 	0.25929345583427
scalar RSUExampleScenario.node[81].veinsmobility 	maxSpeed 	13.999951841731
scalar RSUExampleScenario.node[81].veinsmobility 	totalDistance 	3413.5754977836
scalar RSUExampleScenario.node[81].veinsmobility 	totalCO2Emission 	720.56592949406
scalar RSUExampleScenario.node[82].veinsmobility 	startTime 	246.1
scalar RSUExampleScenario.node[82].veinsmobility 	totalTime 	296.3
scalar RSUExampleScenario.node[82].veinsmobility 	stopTime 	542.5
scalar RSUExampleScenario.node[82].veinsmobility 	minSpeed 	0.2569531010096
scalar RSUExampleScenario.node[82].veinsmobility 	maxSpeed 	13.999965083157
scalar RSUExampleScenario.node[82].veinsmobility 	totalDistance 	3409.8159546942
scalar RSUExampleScenario.node[82].veinsmobility 	totalCO2Emission 	717.02867550762
scalar RSUExampleScenario.node[83].veinsmobility 	startTime 	249.1
scalar RSUExampleScenario.node[83].veinsmobility 	totalTime 	297
scalar RSUExampleScenario.node[83].veinsmobility 	stopTime 	546.2
scalar RSUExampleScenario.node[83].veinsmobility 	minSpeed 	0.25145350314188
scalar RSUExampleScenario.node[83].veinsmobility 	maxSpeed 	13.999975148442
scalar RSUExampleScenario.node[83].veinsmobility 	totalDistance 	3409.9384241283
scalar RSUExampleScenario.node[83].veinsmobility 	totalCO2Emission 	721.73242591349
scalar RSUExampleScenario.node[84].veinsmobility 	startTime 	252.1
scalar RSUExampleScenario.node[84].veinsmobility 	totalTime 	297.6
scalar RSUExampleScenario.node[84].veinsmobility 	stopTime 	549.8
scalar RSUExampleScenario.node[84].veinsmobility 	minSpeed 	0.2571499790065
scalar RSUExampleScenario.node[84].veinsmobility 	maxSpeed 	13.999929140077
scalar RSUExampleScenario.node[84].veinsmobility 	totalDistance 	3413.5758659357
scalar RSUExampleScenario.node[84].veinsmobility 	totalCO2Emission 	719.46116512641
scalar RSUExampleScenario.node[85].veinsmobility 	startTime 	255.1
scalar RSUExampleScenario.node[85].veinsmobility 	totalTime 	298.2
scalar RSUExampleScenario.node[85].veinsmobility 	stopTime 	553.4
scalar RSUExampleScenario.node[85].veinsmobility 	minSpeed 	0.25400720098079
scalar RSUExampleScenario.node[85].veinsmobility 	maxSpeed 	13.999962425719
scalar RSUExampleScenario.node[85].veinsmobility 	totalDistance 	3409.4352187826
scalar RSUExampleScenario.node[85].veinsmobility 	totalCO2Emission 	717.46502352862
scalar RSUExampleScenario.node[86].veinsmobility 	startTime 	258.1
scalar RSUExampleScenario.node[86].veinsmobility 	totalTime 	298.8
scalar RSUExampleScenario.node[86].veinsmobility 	stopTime 	557
scalar RSUExampleScenario.node[86].veinsmobility 	minSpeed 	0.25540013459139
scalar RSUExampleScenario.node[86].veinsmobility 	maxSpeed 	13.999987108745
scalar RSUExampleScenario.node[86].veinsmobility 	totalDistance 	3413.7666146693
scalar RSUExampleScenario.node[86].veinsmobility 	totalCO2Emission 	718.32808419731
scalar RSUExampleScenario.node[87].veinsmobility 	startTime 	261.1
scalar RSUExampleScenario.node[87].veinsmobility 	totalTime 	299.4
scalar RSUExampleScenario.node[87].veinsmobility 	stopTime 	560.6
scalar RSUExampleScenario.node[87].veinsmobility 	minSpeed 	0.25155019316543
scalar RSUExampleScenario.node[87].veinsmobility 	maxSpeed 	13.999933386343
scalar RSUExampleScenario.node[87].veinsmobility 	totalDistance 	3409.569970957
scalar RSUExampleScenario.node[87].veinsmobility 	totalCO2Emission 	722.15985616877
scalar RSUExampleScenario.node[88].veinsmobility 	startTime 	264.1
scalar RSUExampleScenario.node[88].veinsmobility 	totalTime 	300.1
scalar RSUExampleScenario.node[88].veinsmobility 	stopTime 	564.3
scalar RSUExampleScenario.node[88].veinsmobility 	minSpeed 	0.25095873521967
scalar RSUExampleScenario.node[88].veinsmobility 	maxSpeed 	13.999973131535
scalar RSUExampleScenario.node[88].veinsmobility 	totalDistance 	3414.0185261595
scalar RSUExampleScenario.node[88].veinsmobility 	totalCO2Emission 	719.64944408962
scalar RSUExampleScenario.node[89].veinsmobility 	startTime 	267.1
scalar RSUExampleScenario.node[89].veinsmobility 	totalTime 	300.7
scalar RSUExampleScenario.node[89].veinsmobility 	stopTime 	567.9
scalar RSUExampleScenario.node[89].veinsmobility 	minSpeed 	0.25320696945116
scalar RSUExampleScenario.node[89].veinsmobility 	maxSpeed 	13.99994035597
scalar RSUExampleScenario.node[89].veinsmobility 	totalDistance 	3409.3717810662
scalar RSUExampleScenario.node[89].veinsmobility 	totalCO2Emission 	724.65185151573
scalar RSUExampleScenario.node[90].veinsmobility 	startTime 	270.1
scalar RSUExampleScenario.node[90].veinsmobility 	totalTime 	301.3
scalar RSUExampleScenario.node[90].veinsmobility 	stopTime 	571.5
scalar RSUExampleScenario.node[90].veinsmobility 	minSpeed 	0.24980709415511
scalar RSUExampleScenario.node[90].veinsmobility 	maxSpeed 	13.999961486261
scalar RSUExampleScenario.node[90].veinsmobility 	totalDistance 	3413.7948585176
scalar RSUExampleScenario.node[90].veinsmobility 	totalCO2Emission 	726.03071526981
scalar RSUExampleScenario.node[91].veinsmobility 	startTime 	273.1
scalar RSUExampleScenario.node[91].veinsmobility 	totalTime 	301.9
scalar RSUExampleScenario.node[91].veinsmobility 	stopTime 	575.1
scalar RSUExampleScenario.node[91].veinsmobility 	minSpeed 	0.2596080938885
scalar RSUExampleScenario.node[91].veinsmobility 	maxSpeed 	13.999803926696
scalar RSUExampleScenario.node[91].veinsmobility 	totalDistance 	3409.5386125163
scalar RSUExampleScenario.node[91].veinsmobility 	totalCO2Emission 	726.68634811719
scalar RSUExampleScenario.node[92].veinsmobility 	startTime 	276.1
scalar RSUExampleScenario.node[92].veinsmobility 	totalTime 	302.6
scalar RSUExampleScenario.node[92].veinsmobility 	stopTime 	578.8
scalar RSUExampleScenario.node[92].veinsmobility 	minSpeed 	0.25265654287487
scalar RSUExampleScenario.node[92].veinsmobility 	maxSpeed 	13.999949617125
scalar RSUExampleScenario.node[92].veinsmobility 	totalDistance 	3413.8016059366
scalar RSUExampleScenario.node[92].veinsmobility 	totalCO2Emission 	722.83500002218
scalar RSUExampleScenario.node[93].veinsmobility 	startTime 	279.1
scalar RSUExampleScenario.node[93].veinsmobility 	totalTime 	303.2
scalar RSUExampleScenario.node[93].veinsmobility 	stopTime 	582.4
scalar RSUExampleScenario.node[93].veinsmobility 	minSpeed 	0.25671145859291
scalar RSUExampleScenario.node[93].veinsmobility 	maxSpeed 	13.999991388305
scalar RSUExampleScenario.node[93].veinsmobility 	totalDistance 	3409.6956035827
scalar RSUExampleScenario.node[93].veinsmobility 	totalCO2Emission 	722.27073092146
scalar RSUExampleScenario.node[94].veinsmobility 	startTime 	282.1
scalar RSUExampleScenario.node[94].veinsmobility 	totalTime 	303.9
scalar RSUExampleScenario.node[94].veinsmobility 	stopTime 	586.1
scalar RSUExampleScenario.node[94].veinsmobility 	minSpeed 	0.24998866812373
scalar RSUExampleScenario.node[94].veinsmobility 	maxSpeed 	13.999912366257
scalar RSUExampleScenario.node[94].veinsmobility 	totalDistance 	3413.8007998159
scalar RSUExampleScenario.node[94].veinsmobility 	totalCO2Emission 	726.30723865371
scalar RSUExampleScenario.node[95].veinsmobility 	startTime 	285.1
scalar RSUExampleScenario.node[95].veinsmobility 	totalTime 	304.6
scalar RSUExampleScenario.node[95].veinsmobility 	stopTime 	589.8
scalar RSUExampleScenario.node[95].veinsmobility 	minSpeed 	0.25553248446458
scalar RSUExampleScenario.node[95].veinsmobility 	maxSpeed 	13.999889912982
scalar RSUExampleScenario.node[95].veinsmobility 	totalDistance 	3409.5719534003
scalar RSUExampleScenario.node[95].veinsmobility 	totalCO2Emission 	726.93959746194
scalar RSUExampleScenario.node[96].veinsmobility 	startTime 	288.1
scalar RSUExampleScenario.node[96].veinsmobility 	totalTime 	305.4
scalar RSUExampleScenario.node[96].veinsmobility 	stopTime 	593.6
scalar RSUExampleScenario.node[96].veinsmobility 	minSpeed 	0.25068510132702
scalar RSUExampleScenario.node[96].veinsmobility 	maxSpeed 	13.999939076754
scalar RSUExampleScenario.node[96].veinsmobility 	totalDistance 	3413.9523544353
scalar RSUExampleScenario.node[96].veinsmobility 	totalCO2Emission 	727.07684077122
scalar RSUExampleScenario.node[97].veinsmobility 	startTime 	291.1
scalar RSUExampleScenario.node[97].veinsmobility 	totalTime 	306
scalar RSUExampleScenario.node[97].veinsmobility 	stopTime 	597.2
scalar RSUExampleScenario.node[97].veinsmobility 	minSpeed 	0.2532979126561
scalar RSUExampleScenario.node[97].veinsmobility 	maxSpeed 	13.999934440334
scalar RSUExampleScenario.node[97].veinsmobility 	totalDistance 	3409.6939443239
scalar RSUExampleScenario.node[97].veinsmobility 	totalCO2Emission 	725.93468060929
scalar RSUExampleScenario.node[98].veinsmobility 	startTime 	294.1
scalar RSUExampleScenario.node[98].veinsmobility 	totalTime 	306.7
scalar RSUExampleScenario.node[98].veinsmobility 	stopTime 	600.9
scalar RSUExampleScenario.node[98].veinsmobility 	minSpeed 	0.24846767245093
scalar RSUExampleScenario.node[98].veinsmobility 	maxSpeed 	13.99991749217
scalar RSUExampleScenario.node[98].veinsmobility 	totalDistance 	3413.7558349342
scalar RSUExampleScenario.node[98].veinsmobility 	totalCO2Emission 	724.6232824853
scalar RSUExampleScenario.node[99].veinsmobility 	startTime 	297.1
scalar RSUExampleScenario.node[99].veinsmobility 	totalTime 	307.5
scalar RSUExampleScenario.node[99].veinsmobility 	stopTime 	604.7
scalar RSUExampleScenario.node[99].veinsmobility 	minSpeed 	0.24900675901817
scalar RSUExampleScenario.node[99].veinsmobility 	maxSpeed 	13.999999523521
scalar RSUExampleScenario.node[99].veinsmobility 	totalDistance 	3409.9172214658
scalar RSUExampleScenario.node[99].veinsmobility 	totalCO2Emission 	730.75563684239
scalar RSUExampleScenario.node[100].veinsmobility 	startTime 	300.1
scalar RSUExampleScenario.node[100].veinsmobility 	totalTime 	308.3
scalar RSUExampleScenario.node[100].veinsmobility 	stopTime 	608.5
scalar RSUExampleScenario.node[100].veinsmobility 	minSpeed 	0.25731638773461
scalar RSUExampleScenario.node[100].veinsmobility 	maxSpeed 	13.999994340916
scalar RSUExampleScenario.node[100].veinsmobility 	totalDistance 	3414.0342610134
scalar RSUExampleScenario.node[100].veinsmobility 	totalCO2Emission 	734.5858189385
scalar RSUExampleScenario.node[101].veinsmobility 	startTime 	303.1
scalar RSUExampleScenario.node[101].veinsmobility 	totalTime 	309
scalar RSUExampleScenario.node[101].veinsmobility 	stopTime 	612.2
scalar RSUExampleScenario.node[101].veinsmobility 	minSpeed 	0.25985925586754
scalar RSUExampleScenario.node[101].veinsmobility 	maxSpeed 	13.999880432838
scalar RSUExampleScenario.node[101].veinsmobility 	totalDistance 	3409.7078504955
scalar RSUExampleScenario.node[101].veinsmobility 	totalCO2Emission 	731.77870011692
scalar RSUExampleScenario.node[102].veinsmobility 	startTime 	306.1
scalar RSUExampleScenario.node[102].veinsmobility 	totalTime 	309.7
scalar RSUExampleScenario.node[102].veinsmobility 	stopTime 	615.9
scalar RSUExampleScenario.node[102].veinsmobility 	minSpeed 	0.25088087108894
scalar RSUExampleScenario.node[102].veinsmobility 	maxSpeed 	13.99992962948
scalar RSUExampleScenario.node[102].veinsmobility 	totalDistance 	3413.8721157231
scalar RSUExampleScenario.node[102].veinsmobility 	totalCO2Emission 	729.46051206045
scalar RSUExampleScenario.node[103].veinsmobility 	startTime 	309.1
scalar RSUExampleScenario.node[103].veinsmobility 	totalTime 	310.4
scalar RSUExampleScenario.node[103].veinsmobility 	stopTime 	619.6
scalar RSUExampleScenario.node[103].veinsmobility 	minSpeed 	0.25147257989878
scalar RSUExampleScenario.node[103].veinsmobility 	maxSpeed 	13.999998096265
scalar RSUExampleScenario.node[103].veinsmobility 	totalDistance 	3409.9235269133
scalar RSUExampleScenario.node[103].veinsmobility 	totalCO2Emission 	728.39663616973
scalar RSUExampleScenario.node[104].veinsmobility 	startTime 	312.1
scalar RSUExampleScenario.node[104].veinsmobility 	totalTime 	311.1
scalar RSUExampleScenario.node[104].veinsmobility 	stopTime 	623.3
scalar RSUExampleScenario.node[104].veinsmobility 	minSpeed 	0.25222082274919
scalar RSUExampleScenario.node[104].veinsmobility 	maxSpeed 	13.999902998831
scalar RSUExampleScenario.node[104].veinsmobility 	totalDistance 	3413.7184356634
scalar RSUExampleScenario.node[104].veinsmobility 	totalCO2Emission 	727.31574083558
scalar RSUExampleScenario.node[105].veinsmobility 	startTime 	315.1
scalar RSUExampleScenario.node[105].veinsmobility 	totalTime 	311.8
scalar RSUExampleScenario.node[105].veinsmobility 	stopTime 	627
scalar RSUExampleScenario.node[105].veinsmobility 	minSpeed 	0.24751364958985
scalar RSUExampleScenario.node[105].veinsmobility 	maxSpeed 	13.999990016741
scalar RSUExampleScenario.node[105].veinsmobility 	totalDistance 	3409.7938931288
scalar RSUExampleScenario.node[105].veinsmobility 	totalCO2Emission 	733.04019704697
scalar RSUExampleScenario.node[106].veinsmobility 	startTime 	318.1
scalar RSUExampleScenario.node[106].veinsmobility 	totalTime 	312.5
scalar RSUExampleScenario.node[106].veinsmobility 	stopTime 	630.7
scalar RSUExampleScenario.node[106].veinsmobility 	minSpeed 	0.25619550748612
scalar RSUExampleScenario.node[106].veinsmobility 	maxSpeed 	13.99986082996
scalar RSUExampleScenario.node[106].veinsmobility 	totalDistance 	3413.763549371
scalar RSUExampleScenario.node[106].veinsmobility 	totalCO2Emission 	733.79396086242
scalar RSUExampleScenario.node[107].veinsmobility 	startTime 	321.1
scalar RSUExampleScenario.node[107].veinsmobility 	totalTime 	313.2
scalar RSUExampleScenario.node[107].veinsmobility 	stopTime 	634.4
scalar RSUExampleScenario.node[107].veinsmobility 	minSpeed 	0.25146284647798
scalar RSUExampleScenario.node[107].veinsmobility 	maxSpeed 	13.999874938503
scalar RSUExampleScenario.node[107].veinsmobility 	totalDistance 	3409.7799723743
scalar RSUExampleScenario.node[107].veinsmobility 	totalCO2Emission 	731.55264522831
scalar RSUExampleScenario.node[108].veinsmobility 	startTime 	324.1
scalar RSUExampleScenario.node[108].veinsmobility 	totalTime 	314
scalar RSUExampleScenario.node[108].veinsmobility 	stopTime 	638.2
scalar RSUExampleScenario.node[108].veinsmobility 	minSpeed 	0.25865369244455
scalar RSUExampleScenario.node[108].veinsmobility 	maxSpeed 	13.999851494224
scalar RSUExampleScenario.node[108].veinsmobility 	totalDistance 	3409.9987671333
scalar RSUExampleScenario.node[108].veinsmobility 	totalCO2Emission 	737.09051376552
scalar RSUExampleScenario.node[109].veinsmobility 	startTime 	327.1
scalar RSUExampleScenario.node[109].veinsmobility 	totalTime 	314.6
scalar RSUExampleScenario.node[109].veinsmobility 	stopTime 	641.8
scalar RSUExampleScenario.node[109].veinsmobility 	minSpeed 	0.25580522440444
scalar RSUExampleScenario.node[109].veinsmobility 	maxSpeed 	13.999990762696
scalar RSUExampleScenario.node[109].veinsmobility 	totalDistance 	3413.5761342914
scalar RSUExampleScenario.node[109].veinsmobility 	totalCO2Emission 	735.04512988146
scalar RSUExampleScenario.node[110].veinsmobility 	startTime 	330.1
scalar RSUExampleScenario.node[110].veinsmobility 	totalTime 	315.2
scalar RSUExampleScenario.node[110].veinsmobility 	stopTime 	645.4
scalar RSUExampleScenario.node[110].veinsmobility 	minSpeed 	0.25985894330824
scalar RSUExampleScenario.node[110].veinsmobility 	maxSpeed 	13.999893075684
scalar RSUExampleScenario.node[110].veinsmobility 	totalDistance 	3409.5440525295
scalar RSUExampleScenario.node[110].veinsmobility 	totalCO2Emission 	736.04800229387
scalar RSUExampleScenario.node[111].veinsmobility 	startTime 	333.1
scalar RSUExampleScenario.node[111].veinsmobility 	totalTime 	315.9
scalar RSUExampleScenario.node[111].veinsmobility 	stopTime 	649.1
scalar RSUExampleScenario.node[111].veinsmobility 	minSpeed 	0.25027103030402
scalar RSUExampleScenario.node[111].veinsmobility 	maxSpeed 	13.999881744622
scalar RSUExampleScenario.node[111].veinsmobility 	totalDistance 	3413.9543302564
scalar RSUExampleScenario.node[111].veinsmobility 	totalCO2Emission 	742.23052197467
scalar RSUExampleScenario.node[112].veinsmobility 	startTime 	336.1
scalar RSUExampleScenario.node[112].veinsmobility 	totalTime 	316.5
scalar RSUExampleScenario.node[112].veinsmobility 	stopTime 	652.7
scalar RSUExampleScenario.node[112].veinsmobility 	minSpeed 	0.25808621672122
scalar RSUExampleScenario.node[112].veinsmobility 	maxSpeed 	13.999991968572
scalar RSUExampleScenario.node[112].veinsmobility 	totalDistance 	3409.4884474805
scalar RSUExampleScenario.node[112].veinsmobility 	totalCO2Emission 	739.85060324256
scalar RSUExampleScenario.node[113].veinsmobility 	startTime 	339.1
scalar RSUExampleScenario.node[113].veinsmobility 	totalTime 	317.2
scalar RSUExampleScenario.node[113].veinsmobility 	stopTime 	656.4
scalar RSUExampleScenario.node[113].veinsmobility 	minSpeed 	0.25235663096653
scalar RSUExampleScenario.node[113].veinsmobility 	maxSpeed 	13.999965809074
scalar RSUExampleScenario.node[113].veinsmobility 	totalDistance 	3409.7139212648
scalar RSUExampleScenario.node[113].veinsmobility 	totalCO2Emission 	739.90217951114
scalar RSUExampleScenario.node[114].veinsmobility 	startTime 	342.1
scalar RSUExampleScenario.node[114].veinsmobility 	totalTime 	317.9
scalar RSUExampleScenario.node[114].veinsmobility 	stopTime 	660.1
scalar RSUExampleScenario.node[114].veinsmobility 	minSpeed 	0.25567964908713
scalar RSUExampleScenario.node[114].veinsmobility 	maxSpeed 	13.99997627099
scalar RSUExampleScenario.node[114].veinsmobility 	totalDistance 	3413.7252149263
scalar RSUExampleScenario.node[114].veinsmobility 	totalCO2Emission 	740.23403041525
scalar RSUExampleScenario.node[115].veinsmobility 	startTime 	345.1
scalar RSUExampleScenario.node[115].veinsmobility 	totalTime 	318.6
scalar RSUExampleScenario.node[115].veinsmobility 	stopTime 	663.8
scalar RSUExampleScenario.node[115].veinsmobility 	minSpeed 	0.25852244940493
scalar RSUExampleScenario.node[115].veinsmobility 	maxSpeed 	13.999932118175
scalar RSUExampleScenario.node[115].veinsmobility 	totalDistance 	3410.1873450441
scalar RSUExampleScenario.node[115].veinsmobility 	totalCO2Emission 	738.42803839248
scalar RSUExampleScenario.node[116].veinsmobility 	startTime 	348.1
scalar RSUExampleScenario.node[116].veinsmobility 	totalTime 	319.3
scalar RSUExampleScenario.node[116].veinsmobility 	stopTime 	667.5
scalar RSUExampleScenario.node[116].veinsmobility 	minSpeed 	0.25040694494359
scalar RSUExampleScenario.node[116].veinsmobility 	maxSpeed 	13.999836694512
scalar RSUExampleScenario.node[116].veinsmobility 	totalDistance 	3414.098221876
scalar RSUExampleScenario.node[116].veinsmobility 	totalCO2Emission 	736.46561069551
scalar RSUExampleScenario.node[117].veinsmobility 	startTime 	351.1
scalar RSUExampleScenario.node[117].veinsmobility 	totalTime 	320
scalar RSUExampleScenario.node[117].veinsmobility 	stopTime 	671.2
scalar RSUExampleScenario.node[117].veinsmobility 	minSpeed 	0.25172493466339
scalar RSUExampleScenario.node[117].veinsmobility 	maxSpeed 	13.999909899477
scalar RSUExampleScenario.node[117].veinsmobility 	totalDistance 	3409.7331576978
scalar RSUExampleScenario.node[117].veinsmobility 	totalCO2Emission 	741.41696702129
scalar RSUExampleScenario.node[118].veinsmobility 	startTime 	354.1
scalar RSUExampleScenario.node[118].veinsmobility 	totalTime 	320.7
scalar RSUExampleScenario.node[118].veinsmobility 	stopTime 	674.9
scalar RSUExampleScenario.node[118].veinsmobility 	minSpeed 	0.24949605563912
scalar RSUExampleScenario.node[118].veinsmobility 	maxSpeed 	13.999962144922
scalar RSUExampleScenario.node[118].veinsmobility 	totalDistance 	3413.6959413431
scalar RSUExampleScenario.node[118].veinsmobility 	totalCO2Emission 	742.18949647951
scalar RSUExampleScenario.node[119].veinsmobility 	startTime 	357.1
scalar RSUExampleScenario.node[119].veinsmobility 	totalTime 	321.4
scalar RSUExampleScenario.node[119].veinsmobility 	stopTime 	678.6
scalar RSUExampleScenario.node[119].veinsmobility 	minSpeed 	0.24871408358542
scalar RSUExampleScenario.node[119].veinsmobility 	maxSpeed 	13.999903754531
scalar RSUExampleScenario.node[119].veinsmobility 	totalDistance 	3409.5078207131
scalar RSUExampleScenario.node[119].veinsmobility 	totalCO2Emission 	742.62135782565
scalar RSUExampleScenario.node[120].veinsmobility 	startTime 	360.1
scalar RSUExampleScenario.node[120].veinsmobility 	totalTime 	322.1
scalar RSUExampleScenario.node[120].veinsmobility 	stopTime 	682.3
scalar RSUExampleScenario.node[120].veinsmobility 	minSpeed 	0.25969346877723
scalar RSUExampleScenario.node[120].veinsmobility 	maxSpeed 	13.999953364998
scalar RSUExampleScenario.node[120].veinsmobility 	totalDistance 	3413.829171379
scalar RSUExampleScenario.node[120].veinsmobility 	totalCO2Emission 	744.99736324569
scalar RSUExampleScenario.node[121].veinsmobility 	startTime 	363.1
scalar RSUExampleScenario.node[121].veinsmobility 	totalTime 	322.8
scalar RSUExampleScenario.node[121].veinsmobility 	stopTime 	686
scalar RSUExampleScenario.node[121].veinsmobility 	minSpeed 	0.25000337188644
scalar RSUExampleScenario.node[121].veinsmobility 	maxSpeed 	13.999980956656
scalar RSUExampleScenario.node[121].veinsmobility 	totalDistance 	3409.5373770044
scalar RSUExampleScenario.node[121].veinsmobility 	totalCO2Emission 	745.33294046507
scalar RSUExampleScenario.node[122].veinsmobility 	startTime 	366.1
scalar RSUExampleScenario.node[122].veinsmobility 	totalTime 	323.5
scalar RSUExampleScenario.node[122].veinsmobility 	stopTime 	689.7
scalar RSUExampleScenario.node[122].veinsmobility 	minSpeed 	0.25236810461781
scalar RSUExampleScenario.node[122].veinsmobility 	maxSpeed 	13.999970953087
scalar RSUExampleScenario.node[122].veinsmobility 	totalDistance 	3413.720797419
scalar RSUExampleScenario.node[122].veinsmobility 	totalCO2Emission 	741.85180568713
scalar RSUExampleScenario.node[123].veinsmobility 	startTime 	369.1
scalar RSUExampleScenario.node[123].veinsmobility 	totalTime 	324.2
scalar RSUExampleScenario.node[123].veinsmobility 	stopTime 	693.4
scalar RSUExampleScenario.node[123].veinsmobility 	minSpeed 	0.25563276882935
scalar RSUExampleScenario.node[123].veinsmobility 	maxSpeed 	13.999934912545
scalar RSUExampleScenario.node[123].veinsmobility 	totalDistance 	3409.8325497204
scalar RSUExampleScenario.node[123].veinsmobility 	totalCO2Emission 	740.86896070712
scalar RSUExampleScenario.node[124].veinsmobility 	startTime 	372.1
scalar RSUExampleScenario.node[124].veinsmobility 	totalTime 	324.9
scalar RSUExampleScenario.node[124].veinsmobility 	stopTime 	697.1
scalar RSUExampleScenario.node[124].veinsmobility 	minSpeed 	0.25768479494588
scalar RSUExampleScenario.node[124].veinsmobility 	maxSpeed 	13.99998681003
scalar RSUExampleScenario.node[124].veinsmobility 	totalDistance 	3413.7242673561
scalar RSUExampleScenario.node[124].veinsmobility 	totalCO2Emission 	743.84361811321
scalar RSUExampleScenario.node[125].veinsmobility 	startTime 	375.1
scalar RSUExampleScenario.node[125].veinsmobility 	totalTime 	325.7
scalar RSUExampleScenario.node[125].veinsmobility 	stopTime 	700.9
scalar RSUExampleScenario.node[125].veinsmobility 	minSpeed 	0.25909906401322
scalar RSUExampleScenario.node[125].veinsmobility 	maxSpeed 	13.999952932952
scalar RSUExampleScenario.node[125].veinsmobility 	totalDistance 	3409.8626363101
scalar RSUExampleScenario.node[125].veinsmobility 	totalCO2Emission 	750.07006968331
scalar RSUExampleScenario.node[126].veinsmobility 	startTime 	378.1
scalar RSUExampleScenario.node[126].veinsmobility 	totalTime 	326.4
scalar RSUExampleScenario.node[126].veinsmobility 	stopTime 	704.6
scalar RSUExampleScenario.node[126].veinsmobility 	minSpeed 	0.25300548077468
scalar RSUExampleScenario.node[126].veinsmobility 	maxSpeed 	13.999986962762
scalar RSUExampleScenario.node[126].veinsmobility 	totalDistance 	3413.716829848
scalar RSUExampleScenario.node[126].veinsmobility 	totalCO2Emission 	747.64320031985
scalar RSUExampleScenario.node[127].veinsmobility 	startTime 	381.1
scalar RSUExampleScenario.node[127].veinsmobility 	totalTime 	327.1
scalar RSUExampleScenario.node[127].veinsmobility 	stopTime 	708.3
scalar RSUExampleScenario.node[127].veinsmobility 	minSpeed 	0.25051663651899
scalar RSUExampleScenario.node[127].veinsmobility 	maxSpeed 	13.99989387936
scalar RSUExampleScenario.node[127].veinsmobility 	totalDistance 	3409.7264383548
scalar RSUExampleScenario.node[127].veinsmobility 	totalCO2Emission 	746.07487392842
scalar RSUExampleScenario.node[128].veinsmobility 	startTime 	384.1
scalar RSUExampleScenario.node[128].veinsmobility 	totalTime 	327.8
scalar RSUExampleScenario.node[128].veinsmobility 	stopTime 	712
scalar RSUExampleScenario.node[128].veinsmobility 	minSpeed 	0.25627630547434
scalar RSUExampleScenario.node[128].veinsmobility 	maxSpeed 	13.999840297522
scalar RSUExampleScenario.node[128].veinsmobility 	totalDistance 	3414.2131274327
scalar RSUExampleScenario.node[128].veinsmobility 	totalCO2Emission 	751.64112433017
scalar RSUExampleScenario.node[129].veinsmobility 	startTime 	387.1
scalar RSUExampleScenario.node[129].veinsmobility 	totalTime 	328.5
scalar RSUExampleScenario.node[129].veinsmobility 	stopTime 	715.7
scalar RSUExampleScenario.node[129].veinsmobility 	minSpeed 	0.25546520376136
scalar RSUExampleScenario.node[129].veinsmobility 	maxSpeed 	13.999939734114
scalar RSUExampleScenario.node[129].veinsmobility 	totalDistance 	3409.8782377856
scalar RSUExampleScenario.node[129].veinsmobility 	totalCO2Emission 	748.91323454546
scalar RSUExampleScenario.node[130].veinsmobility 	startTime 	390.1
scalar RSUExampleScenario.node[130].veinsmobility 	totalTime 	329.2
scalar RSUExampleScenario.node[130].veinsmobility 	stopTime 	719.4
scalar RSUExampleScenario.node[130].veinsmobility 	minSpeed 	0.25691388437222
scalar RSUExampleScenario.node[130].veinsmobility 	maxSpeed 	13.99997474845
scalar RSUExampleScenario.node[130].veinsmobility 	totalDistance 	3413.8990253362
scalar RSUExampleScenario.node[130].veinsmobility 	totalCO2Emission 	751.88682289395
scalar RSUExampleScenario.node[131].veinsmobility 	startTime 	393.1
scalar RSUExampleScenario.node[131].veinsmobility 	totalTime 	329.9
scalar RSUExampleScenario.node[131].veinsmobility 	stopTime 	723.1
scalar RSUExampleScenario.node[131].veinsmobility 	minSpeed 	0.25430208250158
scalar RSUExampleScenario.node[131].veinsmobility 	maxSpeed 	13.999983044148
scalar RSUExampleScenario.node[131].veinsmobility 	totalDistance 	3409.684908527
scalar RSUExampleScenario.node[131].veinsmobility 	totalCO2Emission 	752.67985532215
scalar RSUExampleScenario.node[132].veinsmobility 	startTime 	396.1
scalar RSUExampleScenario.node[132].veinsmobility 	totalTime 	330.6
scalar RSUExampleScenario.node[132].veinsmobility 	stopTime 	726.8
scalar RSUExampleScenario.node[132].veinsmobility 	minSpeed 	0.25579722476401
scalar RSUExampleScenario.node[132].veinsmobility 	maxSpeed 	13.999918688785
scalar RSUExampleScenario.node[132].veinsmobility 	totalDistance 	3414.1943695118
scalar RSUExampleScenario.node[132].veinsmobility 	totalCO2Emission 	752.66189426773
scalar RSUExampleScenario.node[133].veinsmobility 	startTime 	399.1
scalar RSUExampleScenario.node[133].veinsmobility 	totalTime 	331.4
scalar RSUExampleScenario.node[133].veinsmobility 	stopTime 	730.6
scalar RSUExampleScenario.node[133].veinsmobility 	minSpeed 	0.24953432952566
scalar RSUExampleScenario.node[133].veinsmobility 	maxSpeed 	13.999980149076
scalar RSUExampleScenario.node[133].veinsmobility 	totalDistance 	3409.9394048312
scalar RSUExampleScenario.node[133].veinsmobility 	totalCO2Emission 	752.58941720777
scalar RSUExampleScenario.node[134].veinsmobility 	startTime 	402.1
scalar RSUExampleScenario.node[134].veinsmobility 	totalTime 	332.1
scalar RSUExampleScenario.node[134].veinsmobility 	stopTime 	734.3
scalar RSUExampleScenario.node[134].veinsmobility 	minSpeed 	0.25219276785152
scalar RSUExampleScenario.node[134].veinsmobility 	maxSpeed 	13.999947732035
scalar RSUExampleScenario.node[134].veinsmobility 	totalDistance 	3409.8640460518
scalar RSUExampleScenario.node[134].veinsmobility 	totalCO2Emission 	755.3962170417
scalar RSUExampleScenario.node[135].veinsmobility 	startTime 	405.1
scalar RSUExampleScenario.node[135].veinsmobility 	totalTime 	332.8
scalar RSUExampleScenario.node[135].veinsmobility 	stopTime 	738
scalar RSUExampleScenario.node[135].veinsmobility 	minSpeed 	0.25085333846533
scalar RSUExampleScenario.node[135].veinsmobility 	maxSpeed 	13.999902102263
scalar RSUExampleScenario.node[135].veinsmobility 	totalDistance 	3414.0690059055
scalar RSUExampleScenario.node[135].veinsmobility 	totalCO2Emission 	754.11606050508
scalar RSUExampleScenario.node[136].veinsmobility 	startTime 	408.1
scalar RSUExampleScenario.node[136].veinsmobility 	totalTime 	333.5
scalar RSUExampleScenario.node[136].veinsmobility 	stopTime 	741.7
scalar RSUExampleScenario.node[136].veinsmobility 	minSpeed 	0.25310447856248
scalar RSUExampleScenario.node[136].veinsmobility 	maxSpeed 	13.999973926402
scalar RSUExampleScenario.node[136].veinsmobility 	totalDistance 	3409.6580620373
scalar RSUExampleScenario.node[136].veinsmobility 	totalCO2Emission 	754.05499494491
scalar RSUExampleScenario.node[137].veinsmobility 	startTime 	411.1
scalar RSUExampleScenario.node[137].veinsmobility 	totalTime 	334.2
scalar RSUExampleScenario.node[137].veinsmobility 	stopTime 	745.4
scalar RSUExampleScenario.node[137].veinsmobility 	minSpeed 	0.25665018998296
scalar RSUExampleScenario.node[137].veinsmobility 	maxSpeed 	13.99989367608
scalar RSUExampleScenario.node[137].veinsmobility 	totalDistance 	3413.9046043262
scalar RSUExampleScenario.node[137].veinsmobility 	totalCO2Emission 	752.27697463945
scalar RSUExampleScenario.node[138].veinsmobility 	startTime 	414.1
scalar RSUExampleScenario.node[138].veinsmobility 	totalTime 	334.9
scalar RSUExampleScenario.node[138].veinsmobility 	stopTime 	749.1
scalar RSUExampleScenario.node[138].veinsmobility 	minSpeed 	0.24829202204477
scalar RSUExampleScenario.node[138].veinsmobility 	maxSpeed 	13.999997534007
scalar RSUExampleScenario.node[138].veinsmobility 	totalDistance 	3410.1735307125
scalar RSUExampleScenario.node[138].veinsmobility 	totalCO2Emission 	759.1703565596
scalar RSUExampleScenario.node[139].veinsmobility 	startTime 	417.1
scalar RSUExampleScenario.node[139].veinsmobility 	totalTime 	335.6
scalar RSUExampleScenario.node[139].veinsmobility 	stopTime 	752.8
scalar RSUExampleScenario.node[139].veinsmobility 	minSpeed 	0.24716558614722
scalar RSUExampleScenario.node[139].veinsmobility 	maxSpeed 	13.999961169022
scalar RSUExampleScenario.node[139].veinsmobility 	totalDistance 	3414.1319598767
scalar RSUExampleScenario.node[139].veinsmobility 	totalCO2Emission 	759.0888827436
scalar RSUExampleScenario.node[140].veinsmobility 	startTime 	420.1
scalar RSUExampleScenario.node[140].veinsmobility 	totalTime 	336.3
scalar RSUExampleScenario.node[140].veinsmobility 	stopTime 	756.5
scalar RSUExampleScenario.node[140].veinsmobility 	minSpeed 	0.2543830790387
scalar RSUExampleScenario.node[140].veinsmobility 	maxSpeed 	13.999774082918
scalar RSUExampleScenario.node[140].veinsmobility 	totalDistance 	3409.7171067743
scalar RSUExampleScenario.node[140].veinsmobility 	totalCO2Emission 	756.12612445605
scalar RSUExampleScenario.node[141].veinsmobility 	startTime 	423.1
scalar RSUExampleScenario.node[141].veinsmobility 	totalTime 	337
scalar RSUExampleScenario.node[141].veinsmobility 	stopTime 	760.2
scalar RSUExampleScenario.node[141].veinsmobility 	minSpeed 	0.24903381969733
scalar RSUExampleScenario.node[141].veinsmobility 	maxSpeed 	13.9998618035
scalar RSUExampleScenario.node[141].veinsmobility 	totalDistance 	3413.928286947
scalar RSUExampleScenario.node[141].veinsmobility 	totalCO2Emission 	756.67016827625
scalar RSUExampleScenario.node[142].veinsmobility 	startTime 	426.1
scalar RSUExampleScenario.node[142].veinsmobility 	totalTime 	337.8
scalar RSUExampleScenario.node[142].veinsmobility 	stopTime 	764
scalar RSUExampleScenario.node[142].veinsmobility 	minSpeed 	0.25571159130195
scalar RSUExampleScenario.node[142].veinsmobility 	maxSpeed 	13.99988671181
scalar RSUExampleScenario.node[142].veinsmobility 	totalDistance 	3409.9624243578
scalar RSUExampleScenario.node[142].veinsmobility 	totalCO2Emission 	759.02775424893
scalar RSUExampleScenario.node[143].veinsmobility 	startTime 	429.1
scalar RSUExampleScenario.node[143].veinsmobility 	totalTime 	338.5
scalar RSUExampleScenario.node[143].veinsmobility 	stopTime 	767.7
scalar RSUExampleScenario.node[143].veinsmobility 	minSpeed 	0.25125710992911
scalar RSUExampleScenario.node[143].veinsmobility 	maxSpeed 	13.999971656636
scalar RSUExampleScenario.node[143].veinsmobility 	totalDistance 	3414.0506896442
scalar RSUExampleScenario.node[143].veinsmobility 	totalCO2Emission 	759.46536230664
scalar RSUExampleScenario.node[144].veinsmobility 	startTime 	432.1
scalar RSUExampleScenario.node[144].veinsmobility 	totalTime 	339.2
scalar RSUExampleScenario.node[144].veinsmobility 	stopTime 	771.4
scalar RSUExampleScenario.node[144].veinsmobility 	minSpeed 	0.25904389692331
scalar RSUExampleScenario.node[144].veinsmobility 	maxSpeed 	13.999777350891
scalar RSUExampleScenario.node[144].veinsmobility 	totalDistance 	3410.2585987141
scalar RSUExampleScenario.node[144].veinsmobility 	totalCO2Emission 	761.96200373552
scalar RSUExampleScenario.node[145].veinsmobility 	startTime 	435.1
scalar RSUExampleScenario.node[145].veinsmobility 	totalTime 	339.9
scalar RSUExampleScenario.node[145].veinsmobility 	stopTime 	775.1
scalar RSUExampleScenario.node[145].veinsmobility 	minSpeed 	0.24734261074406
scalar RSUExampleScenario.node[145].veinsmobility 	maxSpeed 	13.999990325081
scalar RSUExampleScenario.node[145].veinsmobility 	totalDistance 	3413.9016396772
scalar RSUExampleScenario.node[145].veinsmobility 	totalCO2Emission 	765.60792695393
scalar RSUExampleScenario.node[146].veinsmobility 	startTime 	438.1
scalar RSUExampleScenario.node[146].veinsmobility 	totalTime 	340.6
scalar RSUExampleScenario.node[146].veinsmobility 	stopTime 	778.8
scalar RSUExampleScenario.node[146].veinsmobility 	minSpeed 	0.25221740072966
scalar RSUExampleScenario.node[146].veinsmobility 	maxSpeed 	13.99996691213
scalar RSUExampleScenario.node[146].veinsmobility 	totalDistance 	3410.0117340643
scalar RSUExampleScenario.node[146].veinsmobility 	totalCO2Emission 	762.86190831643
scalar RSUExampleScenario.node[147].veinsmobility 	startTime 	441.1
scalar RSUExampleScenario.node[147].veinsmobility 	totalTime 	341.3
scalar RSUExampleScenario.node[147].veinsmobility 	stopTime 	782.5
scalar RSUExampleScenario.node[147].veinsmobility 	minSpeed 	0.25439632397541
scalar RSUExampleScenario.node[147].veinsmobility 	maxSpeed 	13.999926612761
scalar RSUExampleScenario.node[147].veinsmobility 	totalDistance 	3413.9712182667
scalar RSUExampleScenario.node[147].veinsmobility 	totalCO2Emission 	763.01215770395
scalar RSUExampleScenario.node[148].veinsmobility 	startTime 	444.1
scalar RSUExampleScenario.node[148].veinsmobility 	totalTime 	342.1
scalar RSUExampleScenario.node[148].veinsmobility 	stopTime 	786.3
scalar RSUExampleScenario.node[148].veinsmobility 	minSpeed 	0.25129204509361
scalar RSUExampleScenario.node[148].veinsmobility 	maxSpeed 	13.999729964002
scalar RSUExampleScenario.node[148].veinsmobility 	totalDistance 	3409.9390680465
scalar RSUExampleScenario.node[148].veinsmobility 	totalCO2Emission 	762.38782033665
scalar RSUExampleScenario.node[149].veinsmobility 	startTime 	447.1
scalar RSUExampleScenario.node[149].veinsmobility 	totalTime 	342.8
scalar RSUExampleScenario.node[149].veinsmobility 	stopTime 	790
scalar RSUExampleScenario.node[149].veinsmobility 	minSpeed 	0.25167876686249
scalar RSUExampleScenario.node[149].veinsmobility 	maxSpeed 	13.999981991972
scalar RSUExampleScenario.node[149].veinsmobility 	totalDistance 	3414.2827658941
scalar RSUExampleScenario.node[149].veinsmobility 	totalCO2Emission 	762.39660660106
scalar RSUExampleScenario.node[150].veinsmobility 	startTime 	450.1
scalar RSUExampleScenario.node[150].veinsmobility 	totalTime 	343.4
scalar RSUExampleScenario.node[150].veinsmobility 	stopTime 	793.6
scalar RSUExampleScenario.node[150].veinsmobility 	minSpeed 	0.25985791384568
scalar RSUExampleScenario.node[150].veinsmobility 	maxSpeed 	13.999953379193
scalar RSUExampleScenario.node[150].veinsmobility 	totalDistance 	3409.6736247062
scalar RSUExampleScenario.node[150].veinsmobility 	totalCO2Emission 	769.18506007448
scalar RSUExampleScenario.node[151].veinsmobility 	startTime 	453.1
scalar RSUExampleScenario.node[151].veinsmobility 	totalTime 	344.1
scalar RSUExampleScenario.node[151].veinsmobility 	stopTime 	797.3
scalar RSUExampleScenario.node[151].veinsmobility 	minSpeed 	0.25159879652201
scalar RSUExampleScenario.node[151].veinsmobility 	maxSpeed 	13.999868636345
scalar RSUExampleScenario.node[151].veinsmobility 	totalDistance 	3414.301654596
scalar RSUExampleScenario.node[151].veinsmobility 	totalCO2Emission 	764.98691900561
scalar RSUExampleScenario.node[152].veinsmobility 	startTime 	456.1
scalar RSUExampleScenario.node[152].veinsmobility 	totalTime 	344.8
scalar RSUExampleScenario.node[152].veinsmobility 	stopTime 	801
scalar RSUExampleScenario.node[152].veinsmobility 	minSpeed 	0.25756778031331
scalar RSUExampleScenario.node[152].veinsmobility 	maxSpeed 	13.999987707627
scalar RSUExampleScenario.node[152].veinsmobility 	totalDistance 	3409.7161518113
[...]
scalar RSUExampleScenario.node[628].veinsmobility 	totalCO2Emission 	325.35767169663
scalar RSUExampleScenario.node[629].veinsmobility 	startTime 	1887.1
scalar RSUExampleScenario.node[629].veinsmobility 	totalTime 	112.8
scalar RSUExampleScenario.node[629].veinsmobility 	stopTime 	2000
scalar RSUExampleScenario.node[629].veinsmobility 	minSpeed 	0.25319308437989
scalar RSUExampleScenario.node[629].veinsmobility 	maxSpeed 	13.999666226984
scalar RSUExampleScenario.node[629].veinsmobility 	totalDistance 	1364.8426337214
scalar RSUExampleScenario.node[629].veinsmobility 	totalCO2Emission 	318.43252131498
scalar RSUExampleScenario.node[630].veinsmobility 	startTime 	1890.1
scalar RSUExampleScenario.node[630].veinsmobility 	totalTime 	109.8
scalar RSUExampleScenario.node[630].veinsmobility 	stopTime 	2000
scalar RSUExampleScenario.node[630].veinsmobility 	minSpeed 	0.24719666794315
scalar RSUExampleScenario.node[630].veinsmobility 	maxSpeed 	13.999853664015
scalar RSUExampleScenario.node[630].veinsmobility 	totalDistance 	1322.4239605932
scalar RSUExampleScenario.node[630].veinsmobility 	totalCO2Emission 	311.88350227965
scalar RSUExampleScenario.node[631].veinsmobility 	startTime 	1893.1
scalar RSUExampleScenario.node[631].veinsmobility 	totalTime 	106.8
scalar RSUExampleScenario.node[631].veinsmobility 	stopTime 	2000
scalar RSUExampleScenario.node[631].veinsmobility 	minSpeed 	0.2533439851189
scalar RSUExampleScenario.node[631].veinsmobility 	maxSpeed 	13.999923653703
scalar RSUExampleScenario.node[631].veinsmobility 	totalDistance 	1280.0998827266
scalar RSUExampleScenario.node[631].veinsmobility 	totalCO2Emission 	301.93130451107
scalar RSUExampleScenario.node[632].veinsmobility 	startTime 	1896.1
scalar RSUExampleScenario.node[632].veinsmobility 	totalTime 	103.8
scalar RSUExampleScenario.node[632].veinsmobility 	stopTime 	2000
scalar RSUExampleScenario.node[632].veinsmobility 	minSpeed 	0.25388838134729
scalar RSUExampleScenario.node[632].veinsmobility 	maxSpeed 	13.999507467202
scalar RSUExampleScenario.node[632].veinsmobility 	totalDistance 	1238.7892696992
scalar RSUExampleScenario.node[632].veinsmobility 	totalCO2Emission 	297.97937594754
scalar RSUExampleScenario.node[633].veinsmobility 	startTime 	1899.1
scalar RSUExampleScenario.node[633].veinsmobility 	totalTime 	100.8
scalar RSUExampleScenario.node[633].veinsmobility 	stopTime 	2000
scalar RSUExampleScenario.node[633].veinsmobility 	minSpeed 	0.25287147352053
scalar RSUExampleScenario.node[633].veinsmobility 	maxSpeed 	13.999904966522
scalar RSUExampleScenario.node[633].veinsmobility 	totalDistance 	1197.2569122318
scalar RSUExampleScenario.node[633].veinsmobility 	totalCO2Emission 	287.26995401443
scalar RSUExampleScenario.node[634].veinsmobility 	startTime 	1902.1
scalar RSUExampleScenario.node[634].veinsmobility 	totalTime 	97.8
scalar RSUExampleScenario.node[634].veinsmobility 	stopTime 	2000
scalar RSUExampleScenario.node[634].veinsmobility 	minSpeed 	0.24850429851818
scalar RSUExampleScenario.node[634].veinsmobility 	maxSpeed 	13.999911754511
scalar RSUExampleScenario.node[634].veinsmobility 	totalDistance 	1155.0612674434
scalar RSUExampleScenario.node[634].veinsmobility 	totalCO2Emission 	281.55171014797
scalar RSUExampleScenario.node[635].veinsmobility 	startTime 	1905.1
scalar RSUExampleScenario.node[635].veinsmobility 	totalTime 	94.8
scalar RSUExampleScenario.node[635].veinsmobility 	stopTime 	2000
scalar RSUExampleScenario.node[635].veinsmobility 	minSpeed 	0.24833814725862
scalar RSUExampleScenario.node[635].veinsmobility 	maxSpeed 	13.999911412271
scalar RSUExampleScenario.node[635].veinsmobility 	totalDistance 	1114.6510927863
scalar RSUExampleScenario.node[635].veinsmobility 	totalCO2Emission 	276.09064737202
scalar RSUExampleScenario.node[636].veinsmobility 	startTime 	1908.1
scalar RSUExampleScenario.node[636].veinsmobility 	totalTime 	91.8
scalar RSUExampleScenario.node[636].veinsmobility 	stopTime 	2000
scalar RSUExampleScenario.node[636].veinsmobility 	minSpeed 	0.25164042019355
scalar RSUExampleScenario.node[636].veinsmobility 	maxSpeed 	13.999806368111
scalar RSUExampleScenario.node[636].veinsmobility 	totalDistance 	1072.0361324732
scalar RSUExampleScenario.node[636].veinsmobility 	totalCO2Emission 	268.51674763958
scalar RSUExampleScenario.node[637].veinsmobility 	startTime 	1911.1
scalar RSUExampleScenario.node[637].veinsmobility 	totalTime 	88.8
scalar RSUExampleScenario.node[637].veinsmobility 	stopTime 	2000
scalar RSUExampleScenario.node[637].veinsmobility 	minSpeed 	0.24997643199773
scalar RSUExampleScenario.node[637].veinsmobility 	maxSpeed 	13.999938665079
scalar RSUExampleScenario.node[637].veinsmobility 	totalDistance 	1028.6810232774
scalar RSUExampleScenario.node[637].veinsmobility 	totalCO2Emission 	261.83266646724
scalar RSUExampleScenario.node[638].veinsmobility 	startTime 	1914.1
scalar RSUExampleScenario.node[638].veinsmobility 	totalTime 	85.8
scalar RSUExampleScenario.node[638].veinsmobility 	stopTime 	2000
scalar RSUExampleScenario.node[638].veinsmobility 	minSpeed 	0.24760156852379
scalar RSUExampleScenario.node[638].veinsmobility 	maxSpeed 	13.999841290161
scalar RSUExampleScenario.node[638].veinsmobility 	totalDistance 	986.67545491198
scalar RSUExampleScenario.node[638].veinsmobility 	totalCO2Emission 	253.34421481106
scalar RSUExampleScenario.node[639].veinsmobility 	startTime 	1917.1
scalar RSUExampleScenario.node[639].veinsmobility 	totalTime 	82.8
scalar RSUExampleScenario.node[639].veinsmobility 	stopTime 	2000
scalar RSUExampleScenario.node[639].veinsmobility 	minSpeed 	0.25579214382288
scalar RSUExampleScenario.node[639].veinsmobility 	maxSpeed 	13.999732541442
scalar RSUExampleScenario.node[639].veinsmobility 	totalDistance 	954.25689988487
scalar RSUExampleScenario.node[639].veinsmobility 	totalCO2Emission 	234.09446980759
scalar RSUExampleScenario.node[640].veinsmobility 	startTime 	1920.1
scalar RSUExampleScenario.node[640].veinsmobility 	totalTime 	79.8
scalar RSUExampleScenario.node[640].veinsmobility 	stopTime 	2000
scalar RSUExampleScenario.node[640].veinsmobility 	minSpeed 	0.24773808785109
scalar RSUExampleScenario.node[640].veinsmobility 	maxSpeed 	13.999993847881
scalar RSUExampleScenario.node[640].veinsmobility 	totalDistance 	937.64537256712
scalar RSUExampleScenario.node[640].veinsmobility 	totalCO2Emission 	221.517370471
scalar RSUExampleScenario.node[641].veinsmobility 	startTime 	1923.1
scalar RSUExampleScenario.node[641].veinsmobility 	totalTime 	76.8
scalar RSUExampleScenario.node[641].veinsmobility 	stopTime 	2000
scalar RSUExampleScenario.node[641].veinsmobility 	minSpeed 	0.25214049054589
scalar RSUExampleScenario.node[641].veinsmobility 	maxSpeed 	13.9999995787
scalar RSUExampleScenario.node[641].veinsmobility 	totalDistance 	913.8490623652
scalar RSUExampleScenario.node[641].veinsmobility 	totalCO2Emission 	220.52739266945
scalar RSUExampleScenario.node[642].veinsmobility 	startTime 	1926.1
scalar RSUExampleScenario.node[642].veinsmobility 	totalTime 	73.8
scalar RSUExampleScenario.node[642].veinsmobility 	stopTime 	2000
scalar RSUExampleScenario.node[642].veinsmobility 	minSpeed 	0.25497647902975
scalar RSUExampleScenario.node[642].veinsmobility 	maxSpeed 	13.999907026228
scalar RSUExampleScenario.node[642].veinsmobility 	totalDistance 	873.33487762313
scalar RSUExampleScenario.node[642].veinsmobility 	totalCO2Emission 	212.36979577711
scalar RSUExampleScenario.node[643].veinsmobility 	startTime 	1929.1
scalar RSUExampleScenario.node[643].veinsmobility 	totalTime 	70.8
scalar RSUExampleScenario.node[643].veinsmobility 	stopTime 	2000
scalar RSUExampleScenario.node[643].veinsmobility 	minSpeed 	0.24834145627869
scalar RSUExampleScenario.node[643].veinsmobility 	maxSpeed 	13.999912956543
scalar RSUExampleScenario.node[643].veinsmobility 	totalDistance 	830.65502874539
scalar RSUExampleScenario.node[643].veinsmobility 	totalCO2Emission 	210.18247653048
scalar RSUExampleScenario.node[644].veinsmobility 	startTime 	1932.1
scalar RSUExampleScenario.node[644].veinsmobility 	totalTime 	67.8
scalar RSUExampleScenario.node[644].veinsmobility 	stopTime 	2000
scalar RSUExampleScenario.node[644].veinsmobility 	minSpeed 	0.25034664857457
scalar RSUExampleScenario.node[644].veinsmobility 	maxSpeed 	13.999970074771
scalar RSUExampleScenario.node[644].veinsmobility 	totalDistance 	790.37800287048
scalar RSUExampleScenario.node[644].veinsmobility 	totalCO2Emission 	202.14412891734
scalar RSUExampleScenario.node[645].veinsmobility 	startTime 	1935.1
scalar RSUExampleScenario.node[645].veinsmobility 	totalTime 	64.8
scalar RSUExampleScenario.node[645].veinsmobility 	stopTime 	2000
scalar RSUExampleScenario.node[645].veinsmobility 	minSpeed 	0.25487294085976
scalar RSUExampleScenario.node[645].veinsmobility 	maxSpeed 	13.999815952135
scalar RSUExampleScenario.node[645].veinsmobility 	totalDistance 	746.38232500986
scalar RSUExampleScenario.node[645].veinsmobility 	totalCO2Emission 	193.16148202467
scalar RSUExampleScenario.node[646].veinsmobility 	startTime 	1938.1
scalar RSUExampleScenario.node[646].veinsmobility 	totalTime 	61.8
scalar RSUExampleScenario.node[646].veinsmobility 	stopTime 	2000
scalar RSUExampleScenario.node[646].veinsmobility 	minSpeed 	0.25845957358927
scalar RSUExampleScenario.node[646].veinsmobility 	maxSpeed 	13.99977515961
scalar RSUExampleScenario.node[646].veinsmobility 	totalDistance 	705.80609524023
scalar RSUExampleScenario.node[646].veinsmobility 	totalCO2Emission 	185.56616555988
scalar RSUExampleScenario.node[647].veinsmobility 	startTime 	1941.1
scalar RSUExampleScenario.node[647].veinsmobility 	totalTime 	58.8
scalar RSUExampleScenario.node[647].veinsmobility 	stopTime 	2000
scalar RSUExampleScenario.node[647].veinsmobility 	minSpeed 	0.25730769563233
scalar RSUExampleScenario.node[647].veinsmobility 	maxSpeed 	13.999941347428
scalar RSUExampleScenario.node[647].veinsmobility 	totalDistance 	664.84669981606
scalar RSUExampleScenario.node[647].veinsmobility 	totalCO2Emission 	178.55672343509
scalar RSUExampleScenario.node[648].veinsmobility 	startTime 	1944.1
scalar RSUExampleScenario.node[648].veinsmobility 	totalTime 	55.8
scalar RSUExampleScenario.node[648].veinsmobility 	stopTime 	2000
scalar RSUExampleScenario.node[648].veinsmobility 	minSpeed 	0.25715321797435
scalar RSUExampleScenario.node[648].veinsmobility 	maxSpeed 	13.999715992725
scalar RSUExampleScenario.node[648].veinsmobility 	totalDistance 	623.43902143164
scalar RSUExampleScenario.node[648].veinsmobility 	totalCO2Emission 	172.94051039499
scalar RSUExampleScenario.node[649].veinsmobility 	startTime 	1947.1
scalar RSUExampleScenario.node[649].veinsmobility 	totalTime 	52.8
scalar RSUExampleScenario.node[649].veinsmobility 	stopTime 	2000
scalar RSUExampleScenario.node[649].veinsmobility 	minSpeed 	0.25954305309476
scalar RSUExampleScenario.node[649].veinsmobility 	maxSpeed 	13.999866340761
scalar RSUExampleScenario.node[649].veinsmobility 	totalDistance 	582.28232101392
scalar RSUExampleScenario.node[649].veinsmobility 	totalCO2Emission 	164.28860666631
scalar RSUExampleScenario.node[650].veinsmobility 	startTime 	1950.1
scalar RSUExampleScenario.node[650].veinsmobility 	totalTime 	49.8
scalar RSUExampleScenario.node[650].veinsmobility 	stopTime 	2000
scalar RSUExampleScenario.node[650].veinsmobility 	minSpeed 	0.25022426067269
scalar RSUExampleScenario.node[650].veinsmobility 	maxSpeed 	13.999286882945
scalar RSUExampleScenario.node[650].veinsmobility 	totalDistance 	539.07991703978
scalar RSUExampleScenario.node[650].veinsmobility 	totalCO2Emission 	157.46902872608
scalar RSUExampleScenario.node[651].veinsmobility 	startTime 	1953.1
scalar RSUExampleScenario.node[651].veinsmobility 	totalTime 	46.8
scalar RSUExampleScenario.node[651].veinsmobility 	stopTime 	2000
scalar RSUExampleScenario.node[651].veinsmobility 	minSpeed 	0.24743588399049
scalar RSUExampleScenario.node[651].veinsmobility 	maxSpeed 	13.998771914276
scalar RSUExampleScenario.node[651].veinsmobility 	totalDistance 	495.82336006615
scalar RSUExampleScenario.node[651].veinsmobility 	totalCO2Emission 	150.82484955254
scalar RSUExampleScenario.node[652].veinsmobility 	startTime 	1956.1
scalar RSUExampleScenario.node[652].veinsmobility 	totalTime 	43.8
scalar RSUExampleScenario.node[652].veinsmobility 	stopTime 	2000
scalar RSUExampleScenario.node[652].veinsmobility 	minSpeed 	0.25783050363604
scalar RSUExampleScenario.node[652].veinsmobility 	maxSpeed 	13.999711514667
scalar RSUExampleScenario.node[652].veinsmobility 	totalDistance 	454.23205436099
scalar RSUExampleScenario.node[652].veinsmobility 	totalCO2Emission 	144.73535901448
scalar RSUExampleScenario.node[653].veinsmobility 	startTime 	1959.1
scalar RSUExampleScenario.node[653].veinsmobility 	totalTime 	40.8
scalar RSUExampleScenario.node[653].veinsmobility 	stopTime 	2000
scalar RSUExampleScenario.node[653].veinsmobility 	minSpeed 	0.24892887652083
scalar RSUExampleScenario.node[653].veinsmobility 	maxSpeed 	13.999615996357
scalar RSUExampleScenario.node[653].veinsmobility 	totalDistance 	413.33061351956
scalar RSUExampleScenario.node[653].veinsmobility 	totalCO2Emission 	136.66099910313
scalar RSUExampleScenario.node[654].veinsmobility 	startTime 	1962.1
scalar RSUExampleScenario.node[654].veinsmobility 	totalTime 	37.8
scalar RSUExampleScenario.node[654].veinsmobility 	stopTime 	2000
scalar RSUExampleScenario.node[654].veinsmobility 	minSpeed 	0.256470226601
scalar RSUExampleScenario.node[654].veinsmobility 	maxSpeed 	13.998233534927
scalar RSUExampleScenario.node[654].veinsmobility 	totalDistance 	371.1354005048
scalar RSUExampleScenario.node[654].veinsmobility 	totalCO2Emission 	129.55714787526
scalar RSUExampleScenario.node[655].veinsmobility 	startTime 	1965.1
scalar RSUExampleScenario.node[655].veinsmobility 	totalTime 	34.8
scalar RSUExampleScenario.node[655].veinsmobility 	stopTime 	2000
scalar RSUExampleScenario.node[655].veinsmobility 	minSpeed 	0.25192956010485
scalar RSUExampleScenario.node[655].veinsmobility 	maxSpeed 	13.999879762251
scalar RSUExampleScenario.node[655].veinsmobility 	totalDistance 	329.16213594583
scalar RSUExampleScenario.node[655].veinsmobility 	totalCO2Emission 	122.26160481449
scalar RSUExampleScenario.node[656].veinsmobility 	startTime 	1968.1
scalar RSUExampleScenario.node[656].veinsmobility 	totalTime 	31.8
scalar RSUExampleScenario.node[656].veinsmobility 	stopTime 	2000
scalar RSUExampleScenario.node[656].veinsmobility 	minSpeed 	0.25002013682015
scalar RSUExampleScenario.node[656].veinsmobility 	maxSpeed 	13.973727063427
scalar RSUExampleScenario.node[656].veinsmobility 	totalDistance 	286.74797377011
scalar RSUExampleScenario.node[656].veinsmobility 	totalCO2Emission 	115.28935189028
scalar RSUExampleScenario.node[657].veinsmobility 	startTime 	1971.1
scalar RSUExampleScenario.node[657].veinsmobility 	totalTime 	28.8
scalar RSUExampleScenario.node[657].veinsmobility 	stopTime 	2000
scalar RSUExampleScenario.node[657].veinsmobility 	minSpeed 	0.24933212052565
scalar RSUExampleScenario.node[657].veinsmobility 	maxSpeed 	13.88535080187
scalar RSUExampleScenario.node[657].veinsmobility 	totalDistance 	248.19952254131
scalar RSUExampleScenario.node[657].veinsmobility 	totalCO2Emission 	97.850077039192
scalar RSUExampleScenario.node[658].veinsmobility 	startTime 	1974.1
scalar RSUExampleScenario.node[658].veinsmobility 	totalTime 	25.8
scalar RSUExampleScenario.node[658].veinsmobility 	stopTime 	2000
scalar RSUExampleScenario.node[658].veinsmobility 	minSpeed 	0.2585128522052
scalar RSUExampleScenario.node[658].veinsmobility 	maxSpeed 	13.88738941937
scalar RSUExampleScenario.node[658].veinsmobility 	totalDistance 	225.48116143181
scalar RSUExampleScenario.node[658].veinsmobility 	totalCO2Emission 	82.687510231111
scalar RSUExampleScenario.node[659].veinsmobility 	startTime 	1977.1
scalar RSUExampleScenario.node[659].veinsmobility 	totalTime 	22.8
scalar RSUExampleScenario.node[659].veinsmobility 	stopTime 	2000
scalar RSUExampleScenario.node[659].veinsmobility 	minSpeed 	0.24876195959933
scalar RSUExampleScenario.node[659].veinsmobility 	maxSpeed 	13.889587123545
scalar RSUExampleScenario.node[659].veinsmobility 	totalDistance 	207.371775392
scalar RSUExampleScenario.node[659].veinsmobility 	totalCO2Emission 	78.902455123999
scalar RSUExampleScenario.node[660].veinsmobility 	startTime 	1980.1
scalar RSUExampleScenario.node[660].veinsmobility 	totalTime 	19.8
scalar RSUExampleScenario.node[660].veinsmobility 	stopTime 	2000
scalar RSUExampleScenario.node[660].veinsmobility 	minSpeed 	0.25956097556697
scalar RSUExampleScenario.node[660].veinsmobility 	maxSpeed 	13.88588857244
scalar RSUExampleScenario.node[660].veinsmobility 	totalDistance 	174.91297267152
scalar RSUExampleScenario.node[660].veinsmobility 	totalCO2Emission 	75.493118794727
scalar RSUExampleScenario.node[661].veinsmobility 	startTime 	1983.1
scalar RSUExampleScenario.node[661].veinsmobility 	totalTime 	16.8
scalar RSUExampleScenario.node[661].veinsmobility 	stopTime 	2000
scalar RSUExampleScenario.node[661].veinsmobility 	minSpeed 	0.25416372292023
scalar RSUExampleScenario.node[661].veinsmobility 	maxSpeed 	13.879836590441
scalar RSUExampleScenario.node[661].veinsmobility 	totalDistance 	136.92409081748
scalar RSUExampleScenario.node[661].veinsmobility 	totalCO2Emission 	57.883023521885
scalar RSUExampleScenario.node[662].veinsmobility 	startTime 	1986.1
scalar RSUExampleScenario.node[662].veinsmobility 	totalTime 	13.8
scalar RSUExampleScenario.node[662].veinsmobility 	stopTime 	2000
scalar RSUExampleScenario.node[662].veinsmobility 	minSpeed 	0.25416937935865
scalar RSUExampleScenario.node[662].veinsmobility 	maxSpeed 	13.886655784466
scalar RSUExampleScenario.node[662].veinsmobility 	totalDistance 	116.74254292731
scalar RSUExampleScenario.node[662].veinsmobility 	totalCO2Emission 	43.039355839584
scalar RSUExampleScenario.node[663].veinsmobility 	startTime 	1989.1
scalar RSUExampleScenario.node[663].veinsmobility 	totalTime 	10.8
scalar RSUExampleScenario.node[663].veinsmobility 	stopTime 	2000
scalar RSUExampleScenario.node[663].veinsmobility 	minSpeed 	0.25816501412587
scalar RSUExampleScenario.node[663].veinsmobility 	maxSpeed 	13.876395600929
scalar RSUExampleScenario.node[663].veinsmobility 	totalDistance 	96.644383746669
scalar RSUExampleScenario.node[663].veinsmobility 	totalCO2Emission 	39.561256785452
scalar RSUExampleScenario.node[664].veinsmobility 	startTime 	1992.1
scalar RSUExampleScenario.node[664].veinsmobility 	totalTime 	7.8
scalar RSUExampleScenario.node[664].veinsmobility 	stopTime 	2000
scalar RSUExampleScenario.node[664].veinsmobility 	minSpeed 	0.24863720554323
scalar RSUExampleScenario.node[664].veinsmobility 	maxSpeed 	13.887295891542
scalar RSUExampleScenario.node[664].veinsmobility 	totalDistance 	62.561650649035
scalar RSUExampleScenario.node[664].veinsmobility 	totalCO2Emission 	35.995281671818
scalar RSUExampleScenario.node[665].veinsmobility 	startTime 	1995.1
scalar RSUExampleScenario.node[665].veinsmobility 	totalTime 	4.8
scalar RSUExampleScenario.node[665].veinsmobility 	stopTime 	2000
scalar RSUExampleScenario.node[665].veinsmobility 	minSpeed 	0.24878976392653
scalar RSUExampleScenario.node[665].veinsmobility 	maxSpeed 	9.6171709071689
scalar RSUExampleScenario.node[665].veinsmobility 	totalDistance 	23.953245279499
scalar RSUExampleScenario.node[665].veinsmobility 	totalCO2Emission 	17.846156661591
scalar RSUExampleScenario.node[666].veinsmobility 	startTime 	1998.1
scalar RSUExampleScenario.node[666].veinsmobility 	totalTime 	1.8
scalar RSUExampleScenario.node[666].veinsmobility 	stopTime 	2000
scalar RSUExampleScenario.node[666].veinsmobility 	minSpeed 	0.25607760866219
scalar RSUExampleScenario.node[666].veinsmobility 	maxSpeed 	3.8728518441848
scalar RSUExampleScenario.node[666].veinsmobility 	totalDistance 	3.8676031343412
scalar RSUExampleScenario.node[666].veinsmobility 	totalCO2Emission 	3.9701680823588
