version 2
run statistic-455-20150310-16:47:17-6800
attr c 23
attr configname statistic
attr datetime 20150310-16:47:17
attr experiment statistic
attr inifile omnetpp.ini
attr iterationvars "$p=1/20, $c=23"
attr iterationvars2 "$p=1/20, $c=23, $repetition=55"
attr measurement "$p=1/20, $c=23"
attr network RSUExampleScenario
attr p 1/20
attr processid 6800
attr repetition 55
attr replication #55
attr resultdir results
attr runnumber 455
attr seedset 455

scalar . 	c 	23
scalar RSUExampleScenario.rsu[0].appl 	NumberofCH 	8
scalar RSUExampleScenario.rsu[0].appl 	NumberofON 	92
scalar RSUExampleScenario.rsu[0].appl 	NumberofFN 	0
scalar RSUExampleScenario.rsu[0].appl 	meanClusterNodes 	11.5
scalar RSUExampleScenario.rsu[0].appl 	varClusterNodes 	5.6568542494924
scalar RSUExampleScenario.rsu[0].appl 	sumCHutility 	299.54295250494
scalar RSUExampleScenario.rsu[0].appl 	meanCHutility 	37.442869063118
scalar RSUExampleScenario.rsu[0].appl 	varCHutility 	1.664573974833
scalar RSUExampleScenario.rsu[0].appl 	sumDiffCHutility 	-33569.904551039
scalar RSUExampleScenario.rsu[0].appl 	meanDiffCHutility 	-4196.2380688798
scalar RSUExampleScenario.rsu[0].appl 	varDiffCHutility 	1941.4188842453
scalar RSUExampleScenario.rsu[0].appl 	expectedCHutility 	274.97911656683
scalar RSUExampleScenario.rsu[0].appl 	meanExpectedCHutility 	34.372389570854
scalar RSUExampleScenario.rsu[0].appl 	varExpectedCHutility 	1.5855200175249
