version 2
run statisticRVV-40-20150327-01:57:34-1540
attr c 10
attr configname statisticRVV
attr datetime 20150327-01:57:34
attr experiment statisticRVV
attr inifile omnetpp.ini
attr iterationvars "$sc=\"erlangen-low.launchd.xml\", $p=1/10, $c=10"
attr iterationvars2 "$sc=\"erlangen-low.launchd.xml\", $p=1/10, $c=10, $repetition=0"
attr measurement "$sc=\"erlangen-low.launchd.xml\", $p=1/10, $c=10"
attr network RSUExampleScenario
attr p 1/10
attr processid 1540
attr repetition 0
attr replication #0
attr resultdir results
attr runnumber 40
attr sc "\"erlangen-low.launchd.xml\""
attr seedset 40

scalar . 	c 	10
scalar RSUExampleScenario.node[0].veinsmobility 	startTime 	0.1
scalar RSUExampleScenario.node[0].veinsmobility 	totalTime 	226.6
scalar RSUExampleScenario.node[0].veinsmobility 	stopTime 	226.8
scalar RSUExampleScenario.node[0].veinsmobility 	minSpeed 	0.25470006867917
scalar RSUExampleScenario.node[0].veinsmobility 	maxSpeed 	18.999625805363
scalar RSUExampleScenario.node[0].veinsmobility 	totalDistance 	3409.2955352565
scalar RSUExampleScenario.node[0].veinsmobility 	totalCO2Emission 	712.21569290954
scalar RSUExampleScenario.node[1].veinsmobility 	startTime 	6.1
scalar RSUExampleScenario.node[1].veinsmobility 	totalTime 	226.8
scalar RSUExampleScenario.node[1].veinsmobility 	stopTime 	233
scalar RSUExampleScenario.node[1].veinsmobility 	minSpeed 	0.25631115563726
scalar RSUExampleScenario.node[1].veinsmobility 	maxSpeed 	18.999841498858
scalar RSUExampleScenario.node[1].veinsmobility 	totalDistance 	3409.1078817501
scalar RSUExampleScenario.node[1].veinsmobility 	totalCO2Emission 	705.64758334158
scalar RSUExampleScenario.node[2].veinsmobility 	startTime 	12.1
scalar RSUExampleScenario.node[2].veinsmobility 	totalTime 	227.1
scalar RSUExampleScenario.node[2].veinsmobility 	stopTime 	239.3
scalar RSUExampleScenario.node[2].veinsmobility 	minSpeed 	0.25827001594962
scalar RSUExampleScenario.node[2].veinsmobility 	maxSpeed 	18.999937327567
scalar RSUExampleScenario.node[2].veinsmobility 	totalDistance 	3409.3415149041
scalar RSUExampleScenario.node[2].veinsmobility 	totalCO2Emission 	708.33892408493
scalar RSUExampleScenario.node[3].veinsmobility 	startTime 	18.1
scalar RSUExampleScenario.node[3].veinsmobility 	totalTime 	226.9
scalar RSUExampleScenario.node[3].veinsmobility 	stopTime 	245.1
scalar RSUExampleScenario.node[3].veinsmobility 	minSpeed 	0.24837462073588
scalar RSUExampleScenario.node[3].veinsmobility 	maxSpeed 	18.999778450618
scalar RSUExampleScenario.node[3].veinsmobility 	totalDistance 	3409.6654368302
scalar RSUExampleScenario.node[3].veinsmobility 	totalCO2Emission 	708.46639619656
scalar RSUExampleScenario.node[4].veinsmobility 	startTime 	24.1
scalar RSUExampleScenario.node[4].veinsmobility 	totalTime 	227.1
scalar RSUExampleScenario.node[4].veinsmobility 	stopTime 	251.3
scalar RSUExampleScenario.node[4].veinsmobility 	minSpeed 	0.24996302954946
scalar RSUExampleScenario.node[4].veinsmobility 	maxSpeed 	18.999749579018
scalar RSUExampleScenario.node[4].veinsmobility 	totalDistance 	3409.5405741382
scalar RSUExampleScenario.node[4].veinsmobility 	totalCO2Emission 	704.95096999479
scalar RSUExampleScenario.node[5].veinsmobility 	startTime 	30.1
scalar RSUExampleScenario.node[5].veinsmobility 	totalTime 	226.8
scalar RSUExampleScenario.node[5].veinsmobility 	stopTime 	257
scalar RSUExampleScenario.node[5].veinsmobility 	minSpeed 	0.2495267478982
scalar RSUExampleScenario.node[5].veinsmobility 	maxSpeed 	18.999180215332
scalar RSUExampleScenario.node[5].veinsmobility 	totalDistance 	3409.4363622533
scalar RSUExampleScenario.node[5].veinsmobility 	totalCO2Emission 	708.4001728724
scalar RSUExampleScenario.node[6].veinsmobility 	startTime 	36.1
scalar RSUExampleScenario.node[6].veinsmobility 	totalTime 	226.8
scalar RSUExampleScenario.node[6].veinsmobility 	stopTime 	263
scalar RSUExampleScenario.node[6].veinsmobility 	minSpeed 	0.24751216548705
scalar RSUExampleScenario.node[6].veinsmobility 	maxSpeed 	18.999637594409
scalar RSUExampleScenario.node[6].veinsmobility 	totalDistance 	3409.2360345644
scalar RSUExampleScenario.node[6].veinsmobility 	totalCO2Emission 	706.11304181447
scalar RSUExampleScenario.node[7].veinsmobility 	startTime 	42.1
scalar RSUExampleScenario.node[7].veinsmobility 	totalTime 	226.9
scalar RSUExampleScenario.node[7].veinsmobility 	stopTime 	269.1
scalar RSUExampleScenario.node[7].veinsmobility 	minSpeed 	0.24843697135965
scalar RSUExampleScenario.node[7].veinsmobility 	maxSpeed 	18.999858335727
scalar RSUExampleScenario.node[7].veinsmobility 	totalDistance 	3409.5068626495
scalar RSUExampleScenario.node[7].veinsmobility 	totalCO2Emission 	709.5097980126
scalar RSUExampleScenario.node[8].veinsmobility 	startTime 	48.1
scalar RSUExampleScenario.node[8].veinsmobility 	totalTime 	226.9
scalar RSUExampleScenario.node[8].veinsmobility 	stopTime 	275.1
scalar RSUExampleScenario.node[8].veinsmobility 	minSpeed 	0.24933783432492
scalar RSUExampleScenario.node[8].veinsmobility 	maxSpeed 	18.999780963769
scalar RSUExampleScenario.node[8].veinsmobility 	totalDistance 	3409.8269967397
scalar RSUExampleScenario.node[8].veinsmobility 	totalCO2Emission 	710.83604074283
scalar RSUExampleScenario.node[9].veinsmobility 	startTime 	54.1
scalar RSUExampleScenario.node[9].veinsmobility 	totalTime 	226.9
scalar RSUExampleScenario.node[9].veinsmobility 	stopTime 	281.1
scalar RSUExampleScenario.node[9].veinsmobility 	minSpeed 	0.25070563613204
scalar RSUExampleScenario.node[9].veinsmobility 	maxSpeed 	18.99980440384
scalar RSUExampleScenario.node[9].veinsmobility 	totalDistance 	3409.5346599632
scalar RSUExampleScenario.node[9].veinsmobility 	totalCO2Emission 	710.19486093914
scalar RSUExampleScenario.node[10].veinsmobility 	startTime 	60.1
scalar RSUExampleScenario.node[10].veinsmobility 	totalTime 	227
scalar RSUExampleScenario.node[10].veinsmobility 	stopTime 	287.2
scalar RSUExampleScenario.node[10].veinsmobility 	minSpeed 	0.25259744156152
scalar RSUExampleScenario.node[10].veinsmobility 	maxSpeed 	18.999917057219
scalar RSUExampleScenario.node[10].veinsmobility 	totalDistance 	3409.2293653978
scalar RSUExampleScenario.node[10].veinsmobility 	totalCO2Emission 	706.43637343976
scalar RSUExampleScenario.node[11].veinsmobility 	startTime 	66.1
scalar RSUExampleScenario.node[11].veinsmobility 	totalTime 	227.1
scalar RSUExampleScenario.node[11].veinsmobility 	stopTime 	293.3
scalar RSUExampleScenario.node[11].veinsmobility 	minSpeed 	0.24745409277058
scalar RSUExampleScenario.node[11].veinsmobility 	maxSpeed 	18.999842907076
scalar RSUExampleScenario.node[11].veinsmobility 	totalDistance 	3409.1809089437
scalar RSUExampleScenario.node[11].veinsmobility 	totalCO2Emission 	701.1778062299
scalar RSUExampleScenario.node[12].veinsmobility 	startTime 	72.1
scalar RSUExampleScenario.node[12].veinsmobility 	totalTime 	227.1
scalar RSUExampleScenario.node[12].veinsmobility 	stopTime 	299.3
scalar RSUExampleScenario.node[12].veinsmobility 	minSpeed 	0.25576694292366
scalar RSUExampleScenario.node[12].veinsmobility 	maxSpeed 	18.99983855115
scalar RSUExampleScenario.node[12].veinsmobility 	totalDistance 	3409.4779184299
scalar RSUExampleScenario.node[12].veinsmobility 	totalCO2Emission 	700.25900255629
scalar RSUExampleScenario.node[13].veinsmobility 	startTime 	78.1
scalar RSUExampleScenario.node[13].veinsmobility 	totalTime 	226.8
scalar RSUExampleScenario.node[13].veinsmobility 	stopTime 	305
scalar RSUExampleScenario.node[13].veinsmobility 	minSpeed 	0.25819876576378
scalar RSUExampleScenario.node[13].veinsmobility 	maxSpeed 	18.999983750482
scalar RSUExampleScenario.node[13].veinsmobility 	totalDistance 	3409.505508604
scalar RSUExampleScenario.node[13].veinsmobility 	totalCO2Emission 	703.02104083341
scalar RSUExampleScenario.node[14].veinsmobility 	startTime 	84.1
scalar RSUExampleScenario.node[14].veinsmobility 	totalTime 	226.8
scalar RSUExampleScenario.node[14].veinsmobility 	stopTime 	311
scalar RSUExampleScenario.node[14].veinsmobility 	minSpeed 	0.24807507032715
scalar RSUExampleScenario.node[14].veinsmobility 	maxSpeed 	18.999790052245
scalar RSUExampleScenario.node[14].veinsmobility 	totalDistance 	3409.1394675163
scalar RSUExampleScenario.node[14].veinsmobility 	totalCO2Emission 	708.5877080188
scalar RSUExampleScenario.node[15].veinsmobility 	startTime 	90.1
scalar RSUExampleScenario.node[15].veinsmobility 	totalTime 	226.9
scalar RSUExampleScenario.node[15].veinsmobility 	stopTime 	317.1
scalar RSUExampleScenario.node[15].veinsmobility 	minSpeed 	0.25920068747899
scalar RSUExampleScenario.node[15].veinsmobility 	maxSpeed 	18.999915704574
scalar RSUExampleScenario.node[15].veinsmobility 	totalDistance 	3409.2893698811
scalar RSUExampleScenario.node[15].veinsmobility 	totalCO2Emission 	705.30620321813
scalar RSUExampleScenario.node[16].veinsmobility 	startTime 	96.1
scalar RSUExampleScenario.node[16].veinsmobility 	totalTime 	226.9
scalar RSUExampleScenario.node[16].veinsmobility 	stopTime 	323.1
scalar RSUExampleScenario.node[16].veinsmobility 	minSpeed 	0.2555185321318
scalar RSUExampleScenario.node[16].veinsmobility 	maxSpeed 	18.9997353672
scalar RSUExampleScenario.node[16].veinsmobility 	totalDistance 	3409.2689167608
scalar RSUExampleScenario.node[16].veinsmobility 	totalCO2Emission 	706.00158717755
scalar RSUExampleScenario.node[17].veinsmobility 	startTime 	102.1
scalar RSUExampleScenario.node[17].veinsmobility 	totalTime 	227
scalar RSUExampleScenario.node[17].veinsmobility 	stopTime 	329.2
scalar RSUExampleScenario.node[17].veinsmobility 	minSpeed 	0.25032312964601
scalar RSUExampleScenario.node[17].veinsmobility 	maxSpeed 	18.999910860606
scalar RSUExampleScenario.node[17].veinsmobility 	totalDistance 	3409.9048309809
scalar RSUExampleScenario.node[17].veinsmobility 	totalCO2Emission 	712.14892217848
scalar RSUExampleScenario.node[18].veinsmobility 	startTime 	108.1
scalar RSUExampleScenario.node[18].veinsmobility 	totalTime 	226.9
scalar RSUExampleScenario.node[18].veinsmobility 	stopTime 	335.1
scalar RSUExampleScenario.node[18].veinsmobility 	minSpeed 	0.25711648645042
scalar RSUExampleScenario.node[18].veinsmobility 	maxSpeed 	18.999822733586
scalar RSUExampleScenario.node[18].veinsmobility 	totalDistance 	3409.5400518744
scalar RSUExampleScenario.node[18].veinsmobility 	totalCO2Emission 	707.04957021642
scalar RSUExampleScenario.node[19].veinsmobility 	startTime 	114.1
scalar RSUExampleScenario.node[19].veinsmobility 	totalTime 	227
scalar RSUExampleScenario.node[19].veinsmobility 	stopTime 	341.2
scalar RSUExampleScenario.node[19].veinsmobility 	minSpeed 	0.25745302763442
scalar RSUExampleScenario.node[19].veinsmobility 	maxSpeed 	18.999989414983
scalar RSUExampleScenario.node[19].veinsmobility 	totalDistance 	3409.260620889
scalar RSUExampleScenario.node[19].veinsmobility 	totalCO2Emission 	708.25277539577
scalar RSUExampleScenario.node[20].veinsmobility 	startTime 	120.1
scalar RSUExampleScenario.node[20].veinsmobility 	totalTime 	226.8
scalar RSUExampleScenario.node[20].veinsmobility 	stopTime 	347
scalar RSUExampleScenario.node[20].veinsmobility 	minSpeed 	0.25697742324742
scalar RSUExampleScenario.node[20].veinsmobility 	maxSpeed 	18.999416021721
scalar RSUExampleScenario.node[20].veinsmobility 	totalDistance 	3409.3570278226
scalar RSUExampleScenario.node[20].veinsmobility 	totalCO2Emission 	706.00056832057
scalar RSUExampleScenario.node[21].veinsmobility 	startTime 	126.1
scalar RSUExampleScenario.node[21].veinsmobility 	totalTime 	227
scalar RSUExampleScenario.node[21].veinsmobility 	stopTime 	353.2
scalar RSUExampleScenario.node[21].veinsmobility 	minSpeed 	0.25352674331935
scalar RSUExampleScenario.node[21].veinsmobility 	maxSpeed 	18.99990482281
scalar RSUExampleScenario.node[21].veinsmobility 	totalDistance 	3409.6688439268
scalar RSUExampleScenario.node[21].veinsmobility 	totalCO2Emission 	706.48641172555
scalar RSUExampleScenario.node[22].veinsmobility 	startTime 	132.1
scalar RSUExampleScenario.node[22].veinsmobility 	totalTime 	226.9
scalar RSUExampleScenario.node[22].veinsmobility 	stopTime 	359.1
scalar RSUExampleScenario.node[22].veinsmobility 	minSpeed 	0.25823929126142
scalar RSUExampleScenario.node[22].veinsmobility 	maxSpeed 	18.999963372895
scalar RSUExampleScenario.node[22].veinsmobility 	totalDistance 	3409.3744263308
scalar RSUExampleScenario.node[22].veinsmobility 	totalCO2Emission 	707.08935229173
scalar RSUExampleScenario.node[23].veinsmobility 	startTime 	138.1
scalar RSUExampleScenario.node[23].veinsmobility 	totalTime 	227.2
scalar RSUExampleScenario.node[23].veinsmobility 	stopTime 	365.4
scalar RSUExampleScenario.node[23].veinsmobility 	minSpeed 	0.25208265383192
scalar RSUExampleScenario.node[23].veinsmobility 	maxSpeed 	18.999772084928
scalar RSUExampleScenario.node[23].veinsmobility 	totalDistance 	3409.5388778114
scalar RSUExampleScenario.node[23].veinsmobility 	totalCO2Emission 	705.21949357962
scalar RSUExampleScenario.node[24].veinsmobility 	startTime 	144.1
scalar RSUExampleScenario.node[24].veinsmobility 	totalTime 	226.9
scalar RSUExampleScenario.node[24].veinsmobility 	stopTime 	371.1
scalar RSUExampleScenario.node[24].veinsmobility 	minSpeed 	0.25756312663201
scalar RSUExampleScenario.node[24].veinsmobility 	maxSpeed 	18.999345994683
scalar RSUExampleScenario.node[24].veinsmobility 	totalDistance 	3409.5313627693
scalar RSUExampleScenario.node[24].veinsmobility 	totalCO2Emission 	704.96787220131
scalar RSUExampleScenario.node[25].veinsmobility 	startTime 	150.1
scalar RSUExampleScenario.node[25].veinsmobility 	totalTime 	226.8
scalar RSUExampleScenario.node[25].veinsmobility 	stopTime 	377
scalar RSUExampleScenario.node[25].veinsmobility 	minSpeed 	0.25636983104679
scalar RSUExampleScenario.node[25].veinsmobility 	maxSpeed 	18.999647394547
scalar RSUExampleScenario.node[25].veinsmobility 	totalDistance 	3409.2369906442
scalar RSUExampleScenario.node[25].veinsmobility 	totalCO2Emission 	710.03862939874
scalar RSUExampleScenario.node[26].veinsmobility 	startTime 	156.1
scalar RSUExampleScenario.node[26].veinsmobility 	totalTime 	226.9
scalar RSUExampleScenario.node[26].veinsmobility 	stopTime 	383.1
scalar RSUExampleScenario.node[26].veinsmobility 	minSpeed 	0.25894955855259
scalar RSUExampleScenario.node[26].veinsmobility 	maxSpeed 	18.999973397742
scalar RSUExampleScenario.node[26].veinsmobility 	totalDistance 	3409.0295275517
scalar RSUExampleScenario.node[26].veinsmobility 	totalCO2Emission 	705.22457111603
scalar RSUExampleScenario.node[27].veinsmobility 	startTime 	162.1
scalar RSUExampleScenario.node[27].veinsmobility 	totalTime 	227.2
scalar RSUExampleScenario.node[27].veinsmobility 	stopTime 	389.4
scalar RSUExampleScenario.node[27].veinsmobility 	minSpeed 	0.2571401685325
scalar RSUExampleScenario.node[27].veinsmobility 	maxSpeed 	18.999719530477
scalar RSUExampleScenario.node[27].veinsmobility 	totalDistance 	3409.6449515434
scalar RSUExampleScenario.node[27].veinsmobility 	totalCO2Emission 	706.54845425428
scalar RSUExampleScenario.node[28].veinsmobility 	startTime 	168.1
scalar RSUExampleScenario.node[28].veinsmobility 	totalTime 	226.7
scalar RSUExampleScenario.node[28].veinsmobility 	stopTime 	394.9
scalar RSUExampleScenario.node[28].veinsmobility 	minSpeed 	0.25543713026703
scalar RSUExampleScenario.node[28].veinsmobility 	maxSpeed 	18.999810771104
scalar RSUExampleScenario.node[28].veinsmobility 	totalDistance 	3409.3341487862
scalar RSUExampleScenario.node[28].veinsmobility 	totalCO2Emission 	705.37886797551
scalar RSUExampleScenario.node[29].veinsmobility 	startTime 	174.1
scalar RSUExampleScenario.node[29].veinsmobility 	totalTime 	227.1
scalar RSUExampleScenario.node[29].veinsmobility 	stopTime 	401.3
scalar RSUExampleScenario.node[29].veinsmobility 	minSpeed 	0.2533133141927
scalar RSUExampleScenario.node[29].veinsmobility 	maxSpeed 	18.999964181746
scalar RSUExampleScenario.node[29].veinsmobility 	totalDistance 	3409.3290286032
scalar RSUExampleScenario.node[29].veinsmobility 	totalCO2Emission 	705.45373202848
scalar RSUExampleScenario.node[30].veinsmobility 	startTime 	180.1
scalar RSUExampleScenario.node[30].veinsmobility 	totalTime 	226.9
scalar RSUExampleScenario.node[30].veinsmobility 	stopTime 	407.1
scalar RSUExampleScenario.node[30].veinsmobility 	minSpeed 	0.25930760608334
scalar RSUExampleScenario.node[30].veinsmobility 	maxSpeed 	18.9999338028
scalar RSUExampleScenario.node[30].veinsmobility 	totalDistance 	3409.1915585783
scalar RSUExampleScenario.node[30].veinsmobility 	totalCO2Emission 	709.9693647358
scalar RSUExampleScenario.node[31].veinsmobility 	startTime 	186.1
scalar RSUExampleScenario.node[31].veinsmobility 	totalTime 	227
scalar RSUExampleScenario.node[31].veinsmobility 	stopTime 	413.2
scalar RSUExampleScenario.node[31].veinsmobility 	minSpeed 	0.25434098963975
scalar RSUExampleScenario.node[31].veinsmobility 	maxSpeed 	18.999938087838
scalar RSUExampleScenario.node[31].veinsmobility 	totalDistance 	3409.7578003621
scalar RSUExampleScenario.node[31].veinsmobility 	totalCO2Emission 	702.40752216048
scalar RSUExampleScenario.node[32].veinsmobility 	startTime 	192.1
scalar RSUExampleScenario.node[32].veinsmobility 	totalTime 	226.9
scalar RSUExampleScenario.node[32].veinsmobility 	stopTime 	419.1
scalar RSUExampleScenario.node[32].veinsmobility 	minSpeed 	0.25147154478822
scalar RSUExampleScenario.node[32].veinsmobility 	maxSpeed 	18.999945719487
scalar RSUExampleScenario.node[32].veinsmobility 	totalDistance 	3409.4516352432
scalar RSUExampleScenario.node[32].veinsmobility 	totalCO2Emission 	710.23470362778
scalar RSUExampleScenario.node[33].veinsmobility 	startTime 	198.1
scalar RSUExampleScenario.node[33].veinsmobility 	totalTime 	226.9
scalar RSUExampleScenario.node[33].veinsmobility 	stopTime 	425.1
scalar RSUExampleScenario.node[33].veinsmobility 	minSpeed 	0.25408310335269
scalar RSUExampleScenario.node[33].veinsmobility 	maxSpeed 	18.999891833516
scalar RSUExampleScenario.node[33].veinsmobility 	totalDistance 	3409.2050706517
scalar RSUExampleScenario.node[33].veinsmobility 	totalCO2Emission 	709.85916476679
scalar RSUExampleScenario.node[34].veinsmobility 	startTime 	204.1
scalar RSUExampleScenario.node[34].veinsmobility 	totalTime 	226.9
scalar RSUExampleScenario.node[34].veinsmobility 	stopTime 	431.1
scalar RSUExampleScenario.node[34].veinsmobility 	minSpeed 	0.25921948078834
scalar RSUExampleScenario.node[34].veinsmobility 	maxSpeed 	18.99978278354
scalar RSUExampleScenario.node[34].veinsmobility 	totalDistance 	3409.2935385535
scalar RSUExampleScenario.node[34].veinsmobility 	totalCO2Emission 	706.72531799437
scalar RSUExampleScenario.node[35].veinsmobility 	startTime 	210.1
scalar RSUExampleScenario.node[35].veinsmobility 	totalTime 	226.8
scalar RSUExampleScenario.node[35].veinsmobility 	stopTime 	437
scalar RSUExampleScenario.node[35].veinsmobility 	minSpeed 	0.25356890967162
scalar RSUExampleScenario.node[35].veinsmobility 	maxSpeed 	18.999947246718
scalar RSUExampleScenario.node[35].veinsmobility 	totalDistance 	3409.3195226377
scalar RSUExampleScenario.node[35].veinsmobility 	totalCO2Emission 	709.46112518795
scalar RSUExampleScenario.node[36].veinsmobility 	startTime 	216.1
scalar RSUExampleScenario.node[36].veinsmobility 	totalTime 	227.1
scalar RSUExampleScenario.node[36].veinsmobility 	stopTime 	443.3
scalar RSUExampleScenario.node[36].veinsmobility 	minSpeed 	0.24977434778959
scalar RSUExampleScenario.node[36].veinsmobility 	maxSpeed 	18.999606687468
scalar RSUExampleScenario.node[36].veinsmobility 	totalDistance 	3409.2252691038
scalar RSUExampleScenario.node[36].veinsmobility 	totalCO2Emission 	705.15707033513
scalar RSUExampleScenario.node[37].veinsmobility 	startTime 	222.1
scalar RSUExampleScenario.node[37].veinsmobility 	totalTime 	227.1
scalar RSUExampleScenario.node[37].veinsmobility 	stopTime 	449.3
scalar RSUExampleScenario.node[37].veinsmobility 	minSpeed 	0.25722706148773
scalar RSUExampleScenario.node[37].veinsmobility 	maxSpeed 	18.999806145974
scalar RSUExampleScenario.node[37].veinsmobility 	totalDistance 	3409.921565218
scalar RSUExampleScenario.node[37].veinsmobility 	totalCO2Emission 	705.73974741227
scalar RSUExampleScenario.node[38].veinsmobility 	startTime 	228.1
scalar RSUExampleScenario.node[38].veinsmobility 	totalTime 	227.2
scalar RSUExampleScenario.node[38].veinsmobility 	stopTime 	455.4
scalar RSUExampleScenario.node[38].veinsmobility 	minSpeed 	0.25097183572361
scalar RSUExampleScenario.node[38].veinsmobility 	maxSpeed 	18.999384627496
scalar RSUExampleScenario.node[38].veinsmobility 	totalDistance 	3409.1984399994
scalar RSUExampleScenario.node[38].veinsmobility 	totalCO2Emission 	708.45499828714
scalar RSUExampleScenario.node[39].veinsmobility 	startTime 	234.1
scalar RSUExampleScenario.node[39].veinsmobility 	totalTime 	226.9
scalar RSUExampleScenario.node[39].veinsmobility 	stopTime 	461.1
scalar RSUExampleScenario.node[39].veinsmobility 	minSpeed 	0.2518541032353
scalar RSUExampleScenario.node[39].veinsmobility 	maxSpeed 	18.999742233825
scalar RSUExampleScenario.node[39].veinsmobility 	totalDistance 	3409.8263242556
scalar RSUExampleScenario.node[39].veinsmobility 	totalCO2Emission 	706.00847503089
scalar RSUExampleScenario.node[40].veinsmobility 	startTime 	240.1
scalar RSUExampleScenario.node[40].veinsmobility 	totalTime 	226.7
scalar RSUExampleScenario.node[40].veinsmobility 	stopTime 	466.9
scalar RSUExampleScenario.node[40].veinsmobility 	minSpeed 	0.2570851310743
scalar RSUExampleScenario.node[40].veinsmobility 	maxSpeed 	18.99982390759
scalar RSUExampleScenario.node[40].veinsmobility 	totalDistance 	3409.3831162043
scalar RSUExampleScenario.node[40].veinsmobility 	totalCO2Emission 	703.20581414347
scalar RSUExampleScenario.node[41].veinsmobility 	startTime 	246.1
scalar RSUExampleScenario.node[41].veinsmobility 	totalTime 	226.8
scalar RSUExampleScenario.node[41].veinsmobility 	stopTime 	473
scalar RSUExampleScenario.node[41].veinsmobility 	minSpeed 	0.25832011734741
scalar RSUExampleScenario.node[41].veinsmobility 	maxSpeed 	18.99953990537
scalar RSUExampleScenario.node[41].veinsmobility 	totalDistance 	3409.2677995788
scalar RSUExampleScenario.node[41].veinsmobility 	totalCO2Emission 	702.21731184356
scalar RSUExampleScenario.node[42].veinsmobility 	startTime 	252.1
scalar RSUExampleScenario.node[42].veinsmobility 	totalTime 	227
scalar RSUExampleScenario.node[42].veinsmobility 	stopTime 	479.2
scalar RSUExampleScenario.node[42].veinsmobility 	minSpeed 	0.25741842064145
scalar RSUExampleScenario.node[42].veinsmobility 	maxSpeed 	18.999868434549
scalar RSUExampleScenario.node[42].veinsmobility 	totalDistance 	3409.6103019313
scalar RSUExampleScenario.node[42].veinsmobility 	totalCO2Emission 	702.92678848899
scalar RSUExampleScenario.node[43].veinsmobility 	startTime 	258.1
scalar RSUExampleScenario.node[43].veinsmobility 	totalTime 	226.9
scalar RSUExampleScenario.node[43].veinsmobility 	stopTime 	485.1
scalar RSUExampleScenario.node[43].veinsmobility 	minSpeed 	0.25419376766845
scalar RSUExampleScenario.node[43].veinsmobility 	maxSpeed 	18.999969999767
scalar RSUExampleScenario.node[43].veinsmobility 	totalDistance 	3409.7267538663
scalar RSUExampleScenario.node[43].veinsmobility 	totalCO2Emission 	710.66935477711
scalar RSUExampleScenario.node[44].veinsmobility 	startTime 	264.1
scalar RSUExampleScenario.node[44].veinsmobility 	totalTime 	226.8
scalar RSUExampleScenario.node[44].veinsmobility 	stopTime 	491
scalar RSUExampleScenario.node[44].veinsmobility 	minSpeed 	0.25767419981374
scalar RSUExampleScenario.node[44].veinsmobility 	maxSpeed 	18.999836401579
scalar RSUExampleScenario.node[44].veinsmobility 	totalDistance 	3409.9668558654
scalar RSUExampleScenario.node[44].veinsmobility 	totalCO2Emission 	706.10643212415
scalar RSUExampleScenario.node[45].veinsmobility 	startTime 	270.1
scalar RSUExampleScenario.node[45].veinsmobility 	totalTime 	227.1
scalar RSUExampleScenario.node[45].veinsmobility 	stopTime 	497.3
scalar RSUExampleScenario.node[45].veinsmobility 	minSpeed 	0.2538377230973
scalar RSUExampleScenario.node[45].veinsmobility 	maxSpeed 	18.999941012966
scalar RSUExampleScenario.node[45].veinsmobility 	totalDistance 	3409.8295268195
scalar RSUExampleScenario.node[45].veinsmobility 	totalCO2Emission 	708.63615415634
scalar RSUExampleScenario.node[46].veinsmobility 	startTime 	276.1
scalar RSUExampleScenario.node[46].veinsmobility 	totalTime 	226.8
scalar RSUExampleScenario.node[46].veinsmobility 	stopTime 	503
scalar RSUExampleScenario.node[46].veinsmobility 	minSpeed 	0.25327604217338
scalar RSUExampleScenario.node[46].veinsmobility 	maxSpeed 	18.99940815934
scalar RSUExampleScenario.node[46].veinsmobility 	totalDistance 	3409.4226536862
scalar RSUExampleScenario.node[46].veinsmobility 	totalCO2Emission 	707.78168235406
scalar RSUExampleScenario.node[47].veinsmobility 	startTime 	282.1
scalar RSUExampleScenario.node[47].veinsmobility 	totalTime 	227.1
scalar RSUExampleScenario.node[47].veinsmobility 	stopTime 	509.3
scalar RSUExampleScenario.node[47].veinsmobility 	minSpeed 	0.25448516024114
scalar RSUExampleScenario.node[47].veinsmobility 	maxSpeed 	18.999745301849
scalar RSUExampleScenario.node[47].veinsmobility 	totalDistance 	3409.2305220472
scalar RSUExampleScenario.node[47].veinsmobility 	totalCO2Emission 	707.8110899532
scalar RSUExampleScenario.node[48].veinsmobility 	startTime 	288.1
scalar RSUExampleScenario.node[48].veinsmobility 	totalTime 	227.2
scalar RSUExampleScenario.node[48].veinsmobility 	stopTime 	515.4
scalar RSUExampleScenario.node[48].veinsmobility 	minSpeed 	0.25725604682625
scalar RSUExampleScenario.node[48].veinsmobility 	maxSpeed 	18.999842674406
scalar RSUExampleScenario.node[48].veinsmobility 	totalDistance 	3409.2830783878
scalar RSUExampleScenario.node[48].veinsmobility 	totalCO2Emission 	704.4486289346
scalar RSUExampleScenario.node[49].veinsmobility 	startTime 	294.1
scalar RSUExampleScenario.node[49].veinsmobility 	totalTime 	226.6
scalar RSUExampleScenario.node[49].veinsmobility 	stopTime 	520.8
scalar RSUExampleScenario.node[49].veinsmobility 	minSpeed 	0.25834445961355
scalar RSUExampleScenario.node[49].veinsmobility 	maxSpeed 	18.999962757032
scalar RSUExampleScenario.node[49].veinsmobility 	totalDistance 	3409.707815132
scalar RSUExampleScenario.node[49].veinsmobility 	totalCO2Emission 	704.29459655122
scalar RSUExampleScenario.node[50].veinsmobility 	startTime 	300.1
scalar RSUExampleScenario.node[50].veinsmobility 	totalTime 	227.2
scalar RSUExampleScenario.node[50].veinsmobility 	stopTime 	527.4
scalar RSUExampleScenario.node[50].veinsmobility 	minSpeed 	0.2527828795258
scalar RSUExampleScenario.node[50].veinsmobility 	maxSpeed 	18.999869374945
scalar RSUExampleScenario.node[50].veinsmobility 	totalDistance 	3409.4438037677
scalar RSUExampleScenario.node[50].veinsmobility 	totalCO2Emission 	705.86618516676
scalar RSUExampleScenario.node[51].veinsmobility 	startTime 	306.1
scalar RSUExampleScenario.node[51].veinsmobility 	totalTime 	226.8
scalar RSUExampleScenario.node[51].veinsmobility 	stopTime 	533
scalar RSUExampleScenario.node[51].veinsmobility 	minSpeed 	0.24895943021309
scalar RSUExampleScenario.node[51].veinsmobility 	maxSpeed 	18.99991379645
scalar RSUExampleScenario.node[51].veinsmobility 	totalDistance 	3409.6054242646
scalar RSUExampleScenario.node[51].veinsmobility 	totalCO2Emission 	707.13869344167
scalar RSUExampleScenario.node[52].veinsmobility 	startTime 	312.1
scalar RSUExampleScenario.node[52].veinsmobility 	totalTime 	226.7
scalar RSUExampleScenario.node[52].veinsmobility 	stopTime 	538.9
scalar RSUExampleScenario.node[52].veinsmobility 	minSpeed 	0.25494676379091
scalar RSUExampleScenario.node[52].veinsmobility 	maxSpeed 	18.999849039309
scalar RSUExampleScenario.node[52].veinsmobility 	totalDistance 	3409.9009499024
scalar RSUExampleScenario.node[52].veinsmobility 	totalCO2Emission 	705.78077801176
scalar RSUExampleScenario.node[53].veinsmobility 	startTime 	318.1
scalar RSUExampleScenario.node[53].veinsmobility 	totalTime 	227.1
scalar RSUExampleScenario.node[53].veinsmobility 	stopTime 	545.3
scalar RSUExampleScenario.node[53].veinsmobility 	minSpeed 	0.25816214841069
scalar RSUExampleScenario.node[53].veinsmobility 	maxSpeed 	18.999533114142
scalar RSUExampleScenario.node[53].veinsmobility 	totalDistance 	3409.3736933982
scalar RSUExampleScenario.node[53].veinsmobility 	totalCO2Emission 	710.47496353001
scalar RSUExampleScenario.node[54].veinsmobility 	startTime 	324.1
scalar RSUExampleScenario.node[54].veinsmobility 	totalTime 	226.9
scalar RSUExampleScenario.node[54].veinsmobility 	stopTime 	551.1
scalar RSUExampleScenario.node[54].veinsmobility 	minSpeed 	0.2554429984421
scalar RSUExampleScenario.node[54].veinsmobility 	maxSpeed 	18.99986475714
scalar RSUExampleScenario.node[54].veinsmobility 	totalDistance 	3409.0906446753
scalar RSUExampleScenario.node[54].veinsmobility 	totalCO2Emission 	707.17785756432
scalar RSUExampleScenario.node[55].veinsmobility 	startTime 	330.1
scalar RSUExampleScenario.node[55].veinsmobility 	totalTime 	226.8
scalar RSUExampleScenario.node[55].veinsmobility 	stopTime 	557
scalar RSUExampleScenario.node[55].veinsmobility 	minSpeed 	0.25212223749887
scalar RSUExampleScenario.node[55].veinsmobility 	maxSpeed 	18.999831619782
scalar RSUExampleScenario.node[55].veinsmobility 	totalDistance 	3409.594439758
scalar RSUExampleScenario.node[55].veinsmobility 	totalCO2Emission 	703.63867882223
scalar RSUExampleScenario.node[56].veinsmobility 	startTime 	336.1
scalar RSUExampleScenario.node[56].veinsmobility 	totalTime 	226.9
scalar RSUExampleScenario.node[56].veinsmobility 	stopTime 	563.1
scalar RSUExampleScenario.node[56].veinsmobility 	minSpeed 	0.25885225906502
scalar RSUExampleScenario.node[56].veinsmobility 	maxSpeed 	18.999895893543
scalar RSUExampleScenario.node[56].veinsmobility 	totalDistance 	3409.3126260592
scalar RSUExampleScenario.node[56].veinsmobility 	totalCO2Emission 	706.35973157792
scalar RSUExampleScenario.node[57].veinsmobility 	startTime 	342.1
scalar RSUExampleScenario.node[57].veinsmobility 	totalTime 	227
scalar RSUExampleScenario.node[57].veinsmobility 	stopTime 	569.2
scalar RSUExampleScenario.node[57].veinsmobility 	minSpeed 	0.25238212121557
scalar RSUExampleScenario.node[57].veinsmobility 	maxSpeed 	18.999616846645
scalar RSUExampleScenario.node[57].veinsmobility 	totalDistance 	3409.3918679808
scalar RSUExampleScenario.node[57].veinsmobility 	totalCO2Emission 	712.79065710656
scalar RSUExampleScenario.node[58].veinsmobility 	startTime 	348.1
scalar RSUExampleScenario.node[58].veinsmobility 	totalTime 	227
scalar RSUExampleScenario.node[58].veinsmobility 	stopTime 	575.2
scalar RSUExampleScenario.node[58].veinsmobility 	minSpeed 	0.25721930963011
scalar RSUExampleScenario.node[58].veinsmobility 	maxSpeed 	18.999847096256
scalar RSUExampleScenario.node[58].veinsmobility 	totalDistance 	3409.5615585463
scalar RSUExampleScenario.node[58].veinsmobility 	totalCO2Emission 	706.85920616454
scalar RSUExampleScenario.node[59].veinsmobility 	startTime 	354.1
scalar RSUExampleScenario.node[59].veinsmobility 	totalTime 	226.9
scalar RSUExampleScenario.node[59].veinsmobility 	stopTime 	581.1
scalar RSUExampleScenario.node[59].veinsmobility 	minSpeed 	0.25980339058605
scalar RSUExampleScenario.node[59].veinsmobility 	maxSpeed 	18.999988096782
scalar RSUExampleScenario.node[59].veinsmobility 	totalDistance 	3409.280420161
scalar RSUExampleScenario.node[59].veinsmobility 	totalCO2Emission 	709.01681563198
scalar RSUExampleScenario.node[60].veinsmobility 	startTime 	360.1
scalar RSUExampleScenario.node[60].veinsmobility 	totalTime 	226.7
scalar RSUExampleScenario.node[60].veinsmobility 	stopTime 	586.9
scalar RSUExampleScenario.node[60].veinsmobility 	minSpeed 	0.24788221042324
scalar RSUExampleScenario.node[60].veinsmobility 	maxSpeed 	18.999830729207
scalar RSUExampleScenario.node[60].veinsmobility 	totalDistance 	3409.2174182453
scalar RSUExampleScenario.node[60].veinsmobility 	totalCO2Emission 	708.06417041601
scalar RSUExampleScenario.node[61].veinsmobility 	startTime 	366.1
scalar RSUExampleScenario.node[61].veinsmobility 	totalTime 	226.9
scalar RSUExampleScenario.node[61].veinsmobility 	stopTime 	593.1
scalar RSUExampleScenario.node[61].veinsmobility 	minSpeed 	0.258176444615
scalar RSUExampleScenario.node[61].veinsmobility 	maxSpeed 	18.999779756439
scalar RSUExampleScenario.node[61].veinsmobility 	totalDistance 	3409.4540517571
scalar RSUExampleScenario.node[61].veinsmobility 	totalCO2Emission 	705.0620927433
scalar RSUExampleScenario.node[62].veinsmobility 	startTime 	372.1
scalar RSUExampleScenario.node[62].veinsmobility 	totalTime 	226.8
scalar RSUExampleScenario.node[62].veinsmobility 	stopTime 	599
scalar RSUExampleScenario.node[62].veinsmobility 	minSpeed 	0.25894908804889
scalar RSUExampleScenario.node[62].veinsmobility 	maxSpeed 	18.999952973209
scalar RSUExampleScenario.node[62].veinsmobility 	totalDistance 	3409.8655313846
scalar RSUExampleScenario.node[62].veinsmobility 	totalCO2Emission 	711.9117107669
scalar RSUExampleScenario.node[63].veinsmobility 	startTime 	378.1
scalar RSUExampleScenario.node[63].veinsmobility 	totalTime 	227
scalar RSUExampleScenario.node[63].veinsmobility 	stopTime 	605.2
scalar RSUExampleScenario.node[63].veinsmobility 	minSpeed 	0.25367913278309
scalar RSUExampleScenario.node[63].veinsmobility 	maxSpeed 	18.999861099708
scalar RSUExampleScenario.node[63].veinsmobility 	totalDistance 	3409.3198152796
scalar RSUExampleScenario.node[63].veinsmobility 	totalCO2Emission 	704.73807577352
scalar RSUExampleScenario.node[64].veinsmobility 	startTime 	384.1
scalar RSUExampleScenario.node[64].veinsmobility 	totalTime 	226.9
scalar RSUExampleScenario.node[64].veinsmobility 	stopTime 	611.1
scalar RSUExampleScenario.node[64].veinsmobility 	minSpeed 	0.24852841309039
scalar RSUExampleScenario.node[64].veinsmobility 	maxSpeed 	18.999815547271
scalar RSUExampleScenario.node[64].veinsmobility 	totalDistance 	3409.1813215591
scalar RSUExampleScenario.node[64].veinsmobility 	totalCO2Emission 	706.24164370677
scalar RSUExampleScenario.node[65].veinsmobility 	startTime 	390.1
scalar RSUExampleScenario.node[65].veinsmobility 	totalTime 	226.8
scalar RSUExampleScenario.node[65].veinsmobility 	stopTime 	617
scalar RSUExampleScenario.node[65].veinsmobility 	minSpeed 	0.25039914489933
scalar RSUExampleScenario.node[65].veinsmobility 	maxSpeed 	18.999870338163
scalar RSUExampleScenario.node[65].veinsmobility 	totalDistance 	3409.539990183
scalar RSUExampleScenario.node[65].veinsmobility 	totalCO2Emission 	707.37293501236
scalar RSUExampleScenario.node[66].veinsmobility 	startTime 	396.1
scalar RSUExampleScenario.node[66].veinsmobility 	totalTime 	226.9
scalar RSUExampleScenario.node[66].veinsmobility 	stopTime 	623.1
scalar RSUExampleScenario.node[66].veinsmobility 	minSpeed 	0.24947215696541
scalar RSUExampleScenario.node[66].veinsmobility 	maxSpeed 	18.999930615278
scalar RSUExampleScenario.node[66].veinsmobility 	totalDistance 	3409.6331288229
scalar RSUExampleScenario.node[66].veinsmobility 	totalCO2Emission 	704.18165272816
scalar RSUExampleScenario.node[67].veinsmobility 	startTime 	402.1
scalar RSUExampleScenario.node[67].veinsmobility 	totalTime 	227
scalar RSUExampleScenario.node[67].veinsmobility 	stopTime 	629.2
scalar RSUExampleScenario.node[67].veinsmobility 	minSpeed 	0.25636300748098
scalar RSUExampleScenario.node[67].veinsmobility 	maxSpeed 	18.99992469813
scalar RSUExampleScenario.node[67].veinsmobility 	totalDistance 	3409.576281512
scalar RSUExampleScenario.node[67].veinsmobility 	totalCO2Emission 	707.50517920013
scalar RSUExampleScenario.node[68].veinsmobility 	startTime 	408.1
scalar RSUExampleScenario.node[68].veinsmobility 	totalTime 	226.8
scalar RSUExampleScenario.node[68].veinsmobility 	stopTime 	635
scalar RSUExampleScenario.node[68].veinsmobility 	minSpeed 	0.25676244392782
scalar RSUExampleScenario.node[68].veinsmobility 	maxSpeed 	18.9999991518
scalar RSUExampleScenario.node[68].veinsmobility 	totalDistance 	3409.1993490406
scalar RSUExampleScenario.node[68].veinsmobility 	totalCO2Emission 	706.15447145531
scalar RSUExampleScenario.node[69].veinsmobility 	startTime 	414.1
scalar RSUExampleScenario.node[69].veinsmobility 	totalTime 	227.1
scalar RSUExampleScenario.node[69].veinsmobility 	stopTime 	641.3
scalar RSUExampleScenario.node[69].veinsmobility 	minSpeed 	0.24761438185419
scalar RSUExampleScenario.node[69].veinsmobility 	maxSpeed 	18.999616182959
scalar RSUExampleScenario.node[69].veinsmobility 	totalDistance 	3409.6508519765
scalar RSUExampleScenario.node[69].veinsmobility 	totalCO2Emission 	705.98238428537
scalar RSUExampleScenario.node[70].veinsmobility 	startTime 	420.1
scalar RSUExampleScenario.node[70].veinsmobility 	totalTime 	227
scalar RSUExampleScenario.node[70].veinsmobility 	stopTime 	647.2
scalar RSUExampleScenario.node[70].veinsmobility 	minSpeed 	0.24976087996247
scalar RSUExampleScenario.node[70].veinsmobility 	maxSpeed 	18.999969714643
scalar RSUExampleScenario.node[70].veinsmobility 	totalDistance 	3409.9401578226
scalar RSUExampleScenario.node[70].veinsmobility 	totalCO2Emission 	707.18949297994
scalar RSUExampleScenario.node[71].veinsmobility 	startTime 	426.1
scalar RSUExampleScenario.node[71].veinsmobility 	totalTime 	227.2
scalar RSUExampleScenario.node[71].veinsmobility 	stopTime 	653.4
scalar RSUExampleScenario.node[71].veinsmobility 	minSpeed 	0.24745926835667
scalar RSUExampleScenario.node[71].veinsmobility 	maxSpeed 	18.99998409027
scalar RSUExampleScenario.node[71].veinsmobility 	totalDistance 	3409.9284193397
scalar RSUExampleScenario.node[71].veinsmobility 	totalCO2Emission 	706.59892460947
scalar RSUExampleScenario.node[72].veinsmobility 	startTime 	432.1
scalar RSUExampleScenario.node[72].veinsmobility 	totalTime 	226.7
scalar RSUExampleScenario.node[72].veinsmobility 	stopTime 	658.9
scalar RSUExampleScenario.node[72].veinsmobility 	minSpeed 	0.24740558143472
scalar RSUExampleScenario.node[72].veinsmobility 	maxSpeed 	18.999949148728
scalar RSUExampleScenario.node[72].veinsmobility 	totalDistance 	3409.7031278407
scalar RSUExampleScenario.node[72].veinsmobility 	totalCO2Emission 	706.95408221646
scalar RSUExampleScenario.node[73].veinsmobility 	startTime 	438.1
scalar RSUExampleScenario.node[73].veinsmobility 	totalTime 	227.1
scalar RSUExampleScenario.node[73].veinsmobility 	stopTime 	665.3
scalar RSUExampleScenario.node[73].veinsmobility 	minSpeed 	0.25482188051776
scalar RSUExampleScenario.node[73].veinsmobility 	maxSpeed 	18.999868822463
scalar RSUExampleScenario.node[73].veinsmobility 	totalDistance 	3409.6938790669
scalar RSUExampleScenario.node[73].veinsmobility 	totalCO2Emission 	708.24985221176
scalar RSUExampleScenario.node[74].veinsmobility 	startTime 	444.1
scalar RSUExampleScenario.node[74].veinsmobility 	totalTime 	227.2
scalar RSUExampleScenario.node[74].veinsmobility 	stopTime 	671.4
scalar RSUExampleScenario.node[74].veinsmobility 	minSpeed 	0.24821162023116
scalar RSUExampleScenario.node[74].veinsmobility 	maxSpeed 	18.999920547057
scalar RSUExampleScenario.node[74].veinsmobility 	totalDistance 	3409.7021154005
scalar RSUExampleScenario.node[74].veinsmobility 	totalCO2Emission 	706.24978947908
scalar RSUExampleScenario.node[75].veinsmobility 	startTime 	450.1
scalar RSUExampleScenario.node[75].veinsmobility 	totalTime 	226.9
scalar RSUExampleScenario.node[75].veinsmobility 	stopTime 	677.1
scalar RSUExampleScenario.node[75].veinsmobility 	minSpeed 	0.25464589094976
scalar RSUExampleScenario.node[75].veinsmobility 	maxSpeed 	18.999913699289
scalar RSUExampleScenario.node[75].veinsmobility 	totalDistance 	3409.3297653782
scalar RSUExampleScenario.node[75].veinsmobility 	totalCO2Emission 	707.98343962621
scalar RSUExampleScenario.node[76].veinsmobility 	startTime 	456.1
scalar RSUExampleScenario.node[76].veinsmobility 	totalTime 	226.7
scalar RSUExampleScenario.node[76].veinsmobility 	stopTime 	682.9
scalar RSUExampleScenario.node[76].veinsmobility 	minSpeed 	0.25354469465511
scalar RSUExampleScenario.node[76].veinsmobility 	maxSpeed 	18.999969305934
scalar RSUExampleScenario.node[76].veinsmobility 	totalDistance 	3409.7395682467
scalar RSUExampleScenario.node[76].veinsmobility 	totalCO2Emission 	705.46500300296
scalar RSUExampleScenario.node[77].veinsmobility 	startTime 	462.1
scalar RSUExampleScenario.node[77].veinsmobility 	totalTime 	226.9
scalar RSUExampleScenario.node[77].veinsmobility 	stopTime 	689.1
scalar RSUExampleScenario.node[77].veinsmobility 	minSpeed 	0.25800760141481
scalar RSUExampleScenario.node[77].veinsmobility 	maxSpeed 	18.999818554698
scalar RSUExampleScenario.node[77].veinsmobility 	totalDistance 	3409.0831447623
scalar RSUExampleScenario.node[77].veinsmobility 	totalCO2Emission 	704.36784385099
scalar RSUExampleScenario.node[78].veinsmobility 	startTime 	468.1
scalar RSUExampleScenario.node[78].veinsmobility 	totalTime 	226.8
scalar RSUExampleScenario.node[78].veinsmobility 	stopTime 	695
scalar RSUExampleScenario.node[78].veinsmobility 	minSpeed 	0.2528354457363
scalar RSUExampleScenario.node[78].veinsmobility 	maxSpeed 	18.99981473845
scalar RSUExampleScenario.node[78].veinsmobility 	totalDistance 	3409.6145695714
scalar RSUExampleScenario.node[78].veinsmobility 	totalCO2Emission 	706.3457765584
scalar RSUExampleScenario.node[79].veinsmobility 	startTime 	474.1
scalar RSUExampleScenario.node[79].veinsmobility 	totalTime 	227
scalar RSUExampleScenario.node[79].veinsmobility 	stopTime 	701.2
scalar RSUExampleScenario.node[79].veinsmobility 	minSpeed 	0.25959234604682
scalar RSUExampleScenario.node[79].veinsmobility 	maxSpeed 	18.999960386716
scalar RSUExampleScenario.node[79].veinsmobility 	totalDistance 	3409.6056253624
scalar RSUExampleScenario.node[79].veinsmobility 	totalCO2Emission 	709.73105433732
scalar RSUExampleScenario.node[80].veinsmobility 	startTime 	480.1
scalar RSUExampleScenario.node[80].veinsmobility 	totalTime 	226.8
scalar RSUExampleScenario.node[80].veinsmobility 	stopTime 	707
scalar RSUExampleScenario.node[80].veinsmobility 	minSpeed 	0.25306844924972
scalar RSUExampleScenario.node[80].veinsmobility 	maxSpeed 	18.999627717179
scalar RSUExampleScenario.node[80].veinsmobility 	totalDistance 	3409.5403168061
scalar RSUExampleScenario.node[80].veinsmobility 	totalCO2Emission 	708.44444931175
scalar RSUExampleScenario.node[81].veinsmobility 	startTime 	486.1
scalar RSUExampleScenario.node[81].veinsmobility 	totalTime 	226.9
scalar RSUExampleScenario.node[81].veinsmobility 	stopTime 	713.1
scalar RSUExampleScenario.node[81].veinsmobility 	minSpeed 	0.25270297049009
scalar RSUExampleScenario.node[81].veinsmobility 	maxSpeed 	18.999912273001
scalar RSUExampleScenario.node[81].veinsmobility 	totalDistance 	3409.3121587006
scalar RSUExampleScenario.node[81].veinsmobility 	totalCO2Emission 	703.55304623463
scalar RSUExampleScenario.node[82].veinsmobility 	startTime 	492.1
scalar RSUExampleScenario.node[82].veinsmobility 	totalTime 	227
scalar RSUExampleScenario.node[82].veinsmobility 	stopTime 	719.2
scalar RSUExampleScenario.node[82].veinsmobility 	minSpeed 	0.25908615311095
scalar RSUExampleScenario.node[82].veinsmobility 	maxSpeed 	18.999812591814
scalar RSUExampleScenario.node[82].veinsmobility 	totalDistance 	3409.430438497
scalar RSUExampleScenario.node[82].veinsmobility 	totalCO2Emission 	706.63480399639
scalar RSUExampleScenario.node[83].veinsmobility 	startTime 	498.1
scalar RSUExampleScenario.node[83].veinsmobility 	totalTime 	226.7
scalar RSUExampleScenario.node[83].veinsmobility 	stopTime 	724.9
scalar RSUExampleScenario.node[83].veinsmobility 	minSpeed 	0.2481572575795
scalar RSUExampleScenario.node[83].veinsmobility 	maxSpeed 	18.999863203848
scalar RSUExampleScenario.node[83].veinsmobility 	totalDistance 	3409.2976925925
scalar RSUExampleScenario.node[83].veinsmobility 	totalCO2Emission 	706.87317028363
scalar RSUExampleScenario.node[84].veinsmobility 	startTime 	504.1
scalar RSUExampleScenario.node[84].veinsmobility 	totalTime 	227
scalar RSUExampleScenario.node[84].veinsmobility 	stopTime 	731.2
scalar RSUExampleScenario.node[84].veinsmobility 	minSpeed 	0.25134237797488
scalar RSUExampleScenario.node[84].veinsmobility 	maxSpeed 	18.999871038322
scalar RSUExampleScenario.node[84].veinsmobility 	totalDistance 	3409.3155321844
scalar RSUExampleScenario.node[84].veinsmobility 	totalCO2Emission 	705.72803633719
scalar RSUExampleScenario.node[85].veinsmobility 	startTime 	510.1
scalar RSUExampleScenario.node[85].veinsmobility 	totalTime 	226.9
scalar RSUExampleScenario.node[85].veinsmobility 	stopTime 	737.1
scalar RSUExampleScenario.node[85].veinsmobility 	minSpeed 	0.2532641826598
scalar RSUExampleScenario.node[85].veinsmobility 	maxSpeed 	18.999765207558
scalar RSUExampleScenario.node[85].veinsmobility 	totalDistance 	3409.3804696552
scalar RSUExampleScenario.node[85].veinsmobility 	totalCO2Emission 	705.12646079388
scalar RSUExampleScenario.node[86].veinsmobility 	startTime 	516.1
scalar RSUExampleScenario.node[86].veinsmobility 	totalTime 	227.2
scalar RSUExampleScenario.node[86].veinsmobility 	stopTime 	743.4
scalar RSUExampleScenario.node[86].veinsmobility 	minSpeed 	0.2554716344336
scalar RSUExampleScenario.node[86].veinsmobility 	maxSpeed 	18.999763440301
scalar RSUExampleScenario.node[86].veinsmobility 	totalDistance 	3409.4583167291
scalar RSUExampleScenario.node[86].veinsmobility 	totalCO2Emission 	703.48074133159
scalar RSUExampleScenario.node[87].veinsmobility 	startTime 	522.1
scalar RSUExampleScenario.node[87].veinsmobility 	totalTime 	227
scalar RSUExampleScenario.node[87].veinsmobility 	stopTime 	749.2
scalar RSUExampleScenario.node[87].veinsmobility 	minSpeed 	0.25198441705387
scalar RSUExampleScenario.node[87].veinsmobility 	maxSpeed 	18.999887031047
scalar RSUExampleScenario.node[87].veinsmobility 	totalDistance 	3409.4262787925
scalar RSUExampleScenario.node[87].veinsmobility 	totalCO2Emission 	705.3637098662
scalar RSUExampleScenario.node[88].veinsmobility 	startTime 	528.1
scalar RSUExampleScenario.node[88].veinsmobility 	totalTime 	226.9
scalar RSUExampleScenario.node[88].veinsmobility 	stopTime 	755.1
scalar RSUExampleScenario.node[88].veinsmobility 	minSpeed 	0.25881051464542
scalar RSUExampleScenario.node[88].veinsmobility 	maxSpeed 	18.999880053066
scalar RSUExampleScenario.node[88].veinsmobility 	totalDistance 	3409.1721503678
scalar RSUExampleScenario.node[88].veinsmobility 	totalCO2Emission 	704.0464313222
scalar RSUExampleScenario.node[89].veinsmobility 	startTime 	534.1
scalar RSUExampleScenario.node[89].veinsmobility 	totalTime 	226.8
scalar RSUExampleScenario.node[89].veinsmobility 	stopTime 	761
scalar RSUExampleScenario.node[89].veinsmobility 	minSpeed 	0.25177526928205
scalar RSUExampleScenario.node[89].veinsmobility 	maxSpeed 	18.99996538057
scalar RSUExampleScenario.node[89].veinsmobility 	totalDistance 	3410.026811412
scalar RSUExampleScenario.node[89].veinsmobility 	totalCO2Emission 	708.10920373442
scalar RSUExampleScenario.node[90].veinsmobility 	startTime 	540.1
scalar RSUExampleScenario.node[90].veinsmobility 	totalTime 	227
scalar RSUExampleScenario.node[90].veinsmobility 	stopTime 	767.2
scalar RSUExampleScenario.node[90].veinsmobility 	minSpeed 	0.24788625342073
scalar RSUExampleScenario.node[90].veinsmobility 	maxSpeed 	18.999962791689
scalar RSUExampleScenario.node[90].veinsmobility 	totalDistance 	3409.3369440719
scalar RSUExampleScenario.node[90].veinsmobility 	totalCO2Emission 	711.32863269826
scalar RSUExampleScenario.node[91].veinsmobility 	startTime 	546.1
scalar RSUExampleScenario.node[91].veinsmobility 	totalTime 	227.2
scalar RSUExampleScenario.node[91].veinsmobility 	stopTime 	773.4
scalar RSUExampleScenario.node[91].veinsmobility 	minSpeed 	0.25164033932658
scalar RSUExampleScenario.node[91].veinsmobility 	maxSpeed 	18.999831261591
scalar RSUExampleScenario.node[91].veinsmobility 	totalDistance 	3409.6799658193
scalar RSUExampleScenario.node[91].veinsmobility 	totalCO2Emission 	707.57588760068
scalar RSUExampleScenario.node[92].veinsmobility 	startTime 	552.1
scalar RSUExampleScenario.node[92].veinsmobility 	totalTime 	227
scalar RSUExampleScenario.node[92].veinsmobility 	stopTime 	779.2
scalar RSUExampleScenario.node[92].veinsmobility 	minSpeed 	0.25633163019083
scalar RSUExampleScenario.node[92].veinsmobility 	maxSpeed 	18.999318582301
scalar RSUExampleScenario.node[92].veinsmobility 	totalDistance 	3409.2624008712
scalar RSUExampleScenario.node[92].veinsmobility 	totalCO2Emission 	708.77746906756
scalar RSUExampleScenario.node[93].veinsmobility 	startTime 	558.1
scalar RSUExampleScenario.node[93].veinsmobility 	totalTime 	226.8
scalar RSUExampleScenario.node[93].veinsmobility 	stopTime 	785
scalar RSUExampleScenario.node[93].veinsmobility 	minSpeed 	0.25732964258711
scalar RSUExampleScenario.node[93].veinsmobility 	maxSpeed 	18.999911379036
scalar RSUExampleScenario.node[93].veinsmobility 	totalDistance 	3409.3002080508
scalar RSUExampleScenario.node[93].veinsmobility 	totalCO2Emission 	703.38342667778
scalar RSUExampleScenario.node[94].veinsmobility 	startTime 	564.1
scalar RSUExampleScenario.node[94].veinsmobility 	totalTime 	226.7
scalar RSUExampleScenario.node[94].veinsmobility 	stopTime 	790.9
scalar RSUExampleScenario.node[94].veinsmobility 	minSpeed 	0.2517923521325
scalar RSUExampleScenario.node[94].veinsmobility 	maxSpeed 	18.999860700928
scalar RSUExampleScenario.node[94].veinsmobility 	totalDistance 	3409.3371101482
scalar RSUExampleScenario.node[94].veinsmobility 	totalCO2Emission 	707.62031738234
scalar RSUExampleScenario.node[95].veinsmobility 	startTime 	570.1
scalar RSUExampleScenario.node[95].veinsmobility 	totalTime 	226.9
scalar RSUExampleScenario.node[95].veinsmobility 	stopTime 	797.1
scalar RSUExampleScenario.node[95].veinsmobility 	minSpeed 	0.25825250515831
scalar RSUExampleScenario.node[95].veinsmobility 	maxSpeed 	18.999910567794
scalar RSUExampleScenario.node[95].veinsmobility 	totalDistance 	3409.5118481114
scalar RSUExampleScenario.node[95].veinsmobility 	totalCO2Emission 	705.0902705529
scalar RSUExampleScenario.node[96].veinsmobility 	startTime 	576.1
scalar RSUExampleScenario.node[96].veinsmobility 	totalTime 	227
scalar RSUExampleScenario.node[96].veinsmobility 	stopTime 	803.2
scalar RSUExampleScenario.node[96].veinsmobility 	minSpeed 	0.25728064078582
scalar RSUExampleScenario.node[96].veinsmobility 	maxSpeed 	18.999991410854
scalar RSUExampleScenario.node[96].veinsmobility 	totalDistance 	3409.118286853
scalar RSUExampleScenario.node[96].veinsmobility 	totalCO2Emission 	706.23811078299
scalar RSUExampleScenario.node[97].veinsmobility 	startTime 	582.1
scalar RSUExampleScenario.node[97].veinsmobility 	totalTime 	226.8
scalar RSUExampleScenario.node[97].veinsmobility 	stopTime 	809
scalar RSUExampleScenario.node[97].veinsmobility 	minSpeed 	0.25813547632704
scalar RSUExampleScenario.node[97].veinsmobility 	maxSpeed 	18.999904091717
scalar RSUExampleScenario.node[97].veinsmobility 	totalDistance 	3409.7921604844
scalar RSUExampleScenario.node[97].veinsmobility 	totalCO2Emission 	708.88911401432
scalar RSUExampleScenario.node[98].veinsmobility 	startTime 	588.1
scalar RSUExampleScenario.node[98].veinsmobility 	totalTime 	226.8
scalar RSUExampleScenario.node[98].veinsmobility 	stopTime 	815
scalar RSUExampleScenario.node[98].veinsmobility 	minSpeed 	0.25160090032546
scalar RSUExampleScenario.node[98].veinsmobility 	maxSpeed 	18.999898912048
scalar RSUExampleScenario.node[98].veinsmobility 	totalDistance 	3409.5442845665
scalar RSUExampleScenario.node[98].veinsmobility 	totalCO2Emission 	709.12922153868
scalar RSUExampleScenario.node[99].veinsmobility 	startTime 	594.1
scalar RSUExampleScenario.node[99].veinsmobility 	totalTime 	226.9
scalar RSUExampleScenario.node[99].veinsmobility 	stopTime 	821.1
scalar RSUExampleScenario.node[99].veinsmobility 	minSpeed 	0.25829634858691
scalar RSUExampleScenario.node[99].veinsmobility 	maxSpeed 	18.999871106152
scalar RSUExampleScenario.node[99].veinsmobility 	totalDistance 	3409.2992331818
scalar RSUExampleScenario.node[99].veinsmobility 	totalCO2Emission 	708.75326496316
scalar RSUExampleScenario.node[100].veinsmobility 	startTime 	600.1
scalar RSUExampleScenario.node[100].veinsmobility 	totalTime 	226.9
scalar RSUExampleScenario.node[100].veinsmobility 	stopTime 	827.1
scalar RSUExampleScenario.node[100].veinsmobility 	minSpeed 	0.25139669419243
scalar RSUExampleScenario.node[100].veinsmobility 	maxSpeed 	18.999999366431
scalar RSUExampleScenario.node[100].veinsmobility 	totalDistance 	3409.6793235079
scalar RSUExampleScenario.node[100].veinsmobility 	totalCO2Emission 	706.79540163735
scalar RSUExampleScenario.node[101].veinsmobility 	startTime 	606.1
scalar RSUExampleScenario.node[101].veinsmobility 	totalTime 	226.9
scalar RSUExampleScenario.node[101].veinsmobility 	stopTime 	833.1
scalar RSUExampleScenario.node[101].veinsmobility 	minSpeed 	0.25698402231862
scalar RSUExampleScenario.node[101].veinsmobility 	maxSpeed 	18.999100169137
scalar RSUExampleScenario.node[101].veinsmobility 	totalDistance 	3409.3553921547
scalar RSUExampleScenario.node[101].veinsmobility 	totalCO2Emission 	708.87268258874
scalar RSUExampleScenario.node[102].veinsmobility 	startTime 	612.1
scalar RSUExampleScenario.node[102].veinsmobility 	totalTime 	226.8
scalar RSUExampleScenario.node[102].veinsmobility 	stopTime 	839
scalar RSUExampleScenario.node[102].veinsmobility 	minSpeed 	0.25703255231166
scalar RSUExampleScenario.node[102].veinsmobility 	maxSpeed 	18.999834173673
scalar RSUExampleScenario.node[102].veinsmobility 	totalDistance 	3409.1477310375
scalar RSUExampleScenario.node[102].veinsmobility 	totalCO2Emission 	709.85651380768
scalar RSUExampleScenario.node[103].veinsmobility 	startTime 	618.1
scalar RSUExampleScenario.node[103].veinsmobility 	totalTime 	226.9
scalar RSUExampleScenario.node[103].veinsmobility 	stopTime 	845.1
scalar RSUExampleScenario.node[103].veinsmobility 	minSpeed 	0.25948515198869
scalar RSUExampleScenario.node[103].veinsmobility 	maxSpeed 	18.999875681673
scalar RSUExampleScenario.node[103].veinsmobility 	totalDistance 	3409.8361831883
scalar RSUExampleScenario.node[103].veinsmobility 	totalCO2Emission 	704.08181234074
scalar RSUExampleScenario.node[104].veinsmobility 	startTime 	624.1
scalar RSUExampleScenario.node[104].veinsmobility 	totalTime 	226.8
scalar RSUExampleScenario.node[104].veinsmobility 	stopTime 	851
scalar RSUExampleScenario.node[104].veinsmobility 	minSpeed 	0.25355921404948
scalar RSUExampleScenario.node[104].veinsmobility 	maxSpeed 	18.999986990821
scalar RSUExampleScenario.node[104].veinsmobility 	totalDistance 	3409.3666446406
scalar RSUExampleScenario.node[104].veinsmobility 	totalCO2Emission 	706.50905436617
scalar RSUExampleScenario.node[105].veinsmobility 	startTime 	630.1
scalar RSUExampleScenario.node[105].veinsmobility 	totalTime 	227
scalar RSUExampleScenario.node[105].veinsmobility 	stopTime 	857.2
scalar RSUExampleScenario.node[105].veinsmobility 	minSpeed 	0.24769801428774
scalar RSUExampleScenario.node[105].veinsmobility 	maxSpeed 	18.999876646011
scalar RSUExampleScenario.node[105].veinsmobility 	totalDistance 	3409.3226668142
scalar RSUExampleScenario.node[105].veinsmobility 	totalCO2Emission 	705.57950647934
scalar RSUExampleScenario.node[106].veinsmobility 	startTime 	636.1
scalar RSUExampleScenario.node[106].veinsmobility 	totalTime 	227
scalar RSUExampleScenario.node[106].veinsmobility 	stopTime 	863.2
scalar RSUExampleScenario.node[106].veinsmobility 	minSpeed 	0.25573541752319
scalar RSUExampleScenario.node[106].veinsmobility 	maxSpeed 	18.999526873732
scalar RSUExampleScenario.node[106].veinsmobility 	totalDistance 	3409.6009269054
scalar RSUExampleScenario.node[106].veinsmobility 	totalCO2Emission 	706.21302574361
scalar RSUExampleScenario.node[107].veinsmobility 	startTime 	642.1
scalar RSUExampleScenario.node[107].veinsmobility 	totalTime 	226.8
scalar RSUExampleScenario.node[107].veinsmobility 	stopTime 	869
scalar RSUExampleScenario.node[107].veinsmobility 	minSpeed 	0.24988210562221
scalar RSUExampleScenario.node[107].veinsmobility 	maxSpeed 	18.999956418977
scalar RSUExampleScenario.node[107].veinsmobility 	totalDistance 	3409.0744789731
scalar RSUExampleScenario.node[107].veinsmobility 	totalCO2Emission 	707.22341562911
scalar RSUExampleScenario.node[108].veinsmobility 	startTime 	648.1
scalar RSUExampleScenario.node[108].veinsmobility 	totalTime 	227.3
scalar RSUExampleScenario.node[108].veinsmobility 	stopTime 	875.5
scalar RSUExampleScenario.node[108].veinsmobility 	minSpeed 	0.24807900790428
scalar RSUExampleScenario.node[108].veinsmobility 	maxSpeed 	18.999871748197
scalar RSUExampleScenario.node[108].veinsmobility 	totalDistance 	3409.8581774823
scalar RSUExampleScenario.node[108].veinsmobility 	totalCO2Emission 	702.88219451445
scalar RSUExampleScenario.node[109].veinsmobility 	startTime 	654.1
scalar RSUExampleScenario.node[109].veinsmobility 	totalTime 	226.9
scalar RSUExampleScenario.node[109].veinsmobility 	stopTime 	881.1
scalar RSUExampleScenario.node[109].veinsmobility 	minSpeed 	0.25490541519481
scalar RSUExampleScenario.node[109].veinsmobility 	maxSpeed 	18.999748786874
scalar RSUExampleScenario.node[109].veinsmobility 	totalDistance 	3409.7880674239
scalar RSUExampleScenario.node[109].veinsmobility 	totalCO2Emission 	708.81847232042
scalar RSUExampleScenario.node[110].veinsmobility 	startTime 	660.1
scalar RSUExampleScenario.node[110].veinsmobility 	totalTime 	226.7
scalar RSUExampleScenario.node[110].veinsmobility 	stopTime 	886.9
scalar RSUExampleScenario.node[110].veinsmobility 	minSpeed 	0.24754479676764
scalar RSUExampleScenario.node[110].veinsmobility 	maxSpeed 	18.999882179452
scalar RSUExampleScenario.node[110].veinsmobility 	totalDistance 	3409.2311416545
scalar RSUExampleScenario.node[110].veinsmobility 	totalCO2Emission 	706.36759560341
scalar RSUExampleScenario.node[111].veinsmobility 	startTime 	666.1
scalar RSUExampleScenario.node[111].veinsmobility 	totalTime 	226.8
scalar RSUExampleScenario.node[111].veinsmobility 	stopTime 	893
scalar RSUExampleScenario.node[111].veinsmobility 	minSpeed 	0.25941444059112
scalar RSUExampleScenario.node[111].veinsmobility 	maxSpeed 	18.999790657484
scalar RSUExampleScenario.node[111].veinsmobility 	totalDistance 	3409.2390839939
scalar RSUExampleScenario.node[111].veinsmobility 	totalCO2Emission 	707.84751966359
scalar RSUExampleScenario.node[112].veinsmobility 	startTime 	672.1
scalar RSUExampleScenario.node[112].veinsmobility 	totalTime 	227
scalar RSUExampleScenario.node[112].veinsmobility 	stopTime 	899.2
scalar RSUExampleScenario.node[112].veinsmobility 	minSpeed 	0.25041507845931
scalar RSUExampleScenario.node[112].veinsmobility 	maxSpeed 	18.999987040642
scalar RSUExampleScenario.node[112].veinsmobility 	totalDistance 	3409.4800182236
scalar RSUExampleScenario.node[112].veinsmobility 	totalCO2Emission 	703.89378815106
scalar RSUExampleScenario.node[113].veinsmobility 	startTime 	678.1
scalar RSUExampleScenario.node[113].veinsmobility 	totalTime 	226.9
scalar RSUExampleScenario.node[113].veinsmobility 	stopTime 	905.1
scalar RSUExampleScenario.node[113].veinsmobility 	minSpeed 	0.24877567111095
scalar RSUExampleScenario.node[113].veinsmobility 	maxSpeed 	18.999748761964
scalar RSUExampleScenario.node[113].veinsmobility 	totalDistance 	3409.6427111241
scalar RSUExampleScenario.node[113].veinsmobility 	totalCO2Emission 	708.59263007915
scalar RSUExampleScenario.node[114].veinsmobility 	startTime 	684.1
scalar RSUExampleScenario.node[114].veinsmobility 	totalTime 	226.9
scalar RSUExampleScenario.node[114].veinsmobility 	stopTime 	911.1
scalar RSUExampleScenario.node[114].veinsmobility 	minSpeed 	0.25110817222018
scalar RSUExampleScenario.node[114].veinsmobility 	maxSpeed 	18.999973539244
scalar RSUExampleScenario.node[114].veinsmobility 	totalDistance 	3409.3468639669
scalar RSUExampleScenario.node[114].veinsmobility 	totalCO2Emission 	706.34657747667
scalar RSUExampleScenario.node[115].veinsmobility 	startTime 	690.1
scalar RSUExampleScenario.node[115].veinsmobility 	totalTime 	226.9
scalar RSUExampleScenario.node[115].veinsmobility 	stopTime 	917.1
scalar RSUExampleScenario.node[115].veinsmobility 	minSpeed 	0.24813701344398
scalar RSUExampleScenario.node[115].veinsmobility 	maxSpeed 	18.999917422161
scalar RSUExampleScenario.node[115].veinsmobility 	totalDistance 	3409.7004722846
scalar RSUExampleScenario.node[115].veinsmobility 	totalCO2Emission 	708.22182932904
scalar RSUExampleScenario.node[116].veinsmobility 	startTime 	696.1
scalar RSUExampleScenario.node[116].veinsmobility 	totalTime 	226.6
scalar RSUExampleScenario.node[116].veinsmobility 	stopTime 	922.8
scalar RSUExampleScenario.node[116].veinsmobility 	minSpeed 	0.25495551396231
scalar RSUExampleScenario.node[116].veinsmobility 	maxSpeed 	18.999908261949
scalar RSUExampleScenario.node[116].veinsmobility 	totalDistance 	3409.560859164
scalar RSUExampleScenario.node[116].veinsmobility 	totalCO2Emission 	710.10616208119
scalar RSUExampleScenario.node[117].veinsmobility 	startTime 	702.1
scalar RSUExampleScenario.node[117].veinsmobility 	totalTime 	227.1
scalar RSUExampleScenario.node[117].veinsmobility 	stopTime 	929.3
scalar RSUExampleScenario.node[117].veinsmobility 	minSpeed 	0.253687993814
scalar RSUExampleScenario.node[117].veinsmobility 	maxSpeed 	18.999747157276
scalar RSUExampleScenario.node[117].veinsmobility 	totalDistance 	3409.3378357175
scalar RSUExampleScenario.node[117].veinsmobility 	totalCO2Emission 	706.08756126991
scalar RSUExampleScenario.node[118].veinsmobility 	startTime 	708.1
scalar RSUExampleScenario.node[118].veinsmobility 	totalTime 	226.9
scalar RSUExampleScenario.node[118].veinsmobility 	stopTime 	935.1
scalar RSUExampleScenario.node[118].veinsmobility 	minSpeed 	0.24980295943655
scalar RSUExampleScenario.node[118].veinsmobility 	maxSpeed 	18.999907653895
scalar RSUExampleScenario.node[118].veinsmobility 	totalDistance 	3409.5153850784
scalar RSUExampleScenario.node[118].veinsmobility 	totalCO2Emission 	706.01118273602
scalar RSUExampleScenario.node[119].veinsmobility 	startTime 	714.1
scalar RSUExampleScenario.node[119].veinsmobility 	totalTime 	227
scalar RSUExampleScenario.node[119].veinsmobility 	stopTime 	941.2
scalar RSUExampleScenario.node[119].veinsmobility 	minSpeed 	0.24973598865932
scalar RSUExampleScenario.node[119].veinsmobility 	maxSpeed 	18.999807503463
scalar RSUExampleScenario.node[119].veinsmobility 	totalDistance 	3409.5305067637
scalar RSUExampleScenario.node[119].veinsmobility 	totalCO2Emission 	709.42502295102
scalar RSUExampleScenario.node[120].veinsmobility 	startTime 	720.1
scalar RSUExampleScenario.node[120].veinsmobility 	totalTime 	226.8
scalar RSUExampleScenario.node[120].veinsmobility 	stopTime 	947
scalar RSUExampleScenario.node[120].veinsmobility 	minSpeed 	0.25253460936202
scalar RSUExampleScenario.node[120].veinsmobility 	maxSpeed 	18.999880322663
scalar RSUExampleScenario.node[120].veinsmobility 	totalDistance 	3409.5985065954
scalar RSUExampleScenario.node[120].veinsmobility 	totalCO2Emission 	706.29067166891
scalar RSUExampleScenario.node[121].veinsmobility 	startTime 	726.1
scalar RSUExampleScenario.node[121].veinsmobility 	totalTime 	227
scalar RSUExampleScenario.node[121].veinsmobility 	stopTime 	953.2
scalar RSUExampleScenario.node[121].veinsmobility 	minSpeed 	0.25498752487334
scalar RSUExampleScenario.node[121].veinsmobility 	maxSpeed 	18.99987391826
scalar RSUExampleScenario.node[121].veinsmobility 	totalDistance 	3409.6556128704
scalar RSUExampleScenario.node[121].veinsmobility 	totalCO2Emission 	707.83130026587
scalar RSUExampleScenario.node[122].veinsmobility 	startTime 	732.1
scalar RSUExampleScenario.node[122].veinsmobility 	totalTime 	226.8
scalar RSUExampleScenario.node[122].veinsmobility 	stopTime 	959
scalar RSUExampleScenario.node[122].veinsmobility 	minSpeed 	0.25012517880648
scalar RSUExampleScenario.node[122].veinsmobility 	maxSpeed 	18.999546009121
scalar RSUExampleScenario.node[122].veinsmobility 	totalDistance 	3409.524060416
scalar RSUExampleScenario.node[122].veinsmobility 	totalCO2Emission 	706.45945835247
scalar RSUExampleScenario.node[123].veinsmobility 	startTime 	738.1
scalar RSUExampleScenario.node[123].veinsmobility 	totalTime 	226.9
scalar RSUExampleScenario.node[123].veinsmobility 	stopTime 	965.1
scalar RSUExampleScenario.node[123].veinsmobility 	minSpeed 	0.25999955138611
scalar RSUExampleScenario.node[123].veinsmobility 	maxSpeed 	18.999942880925
scalar RSUExampleScenario.node[123].veinsmobility 	totalDistance 	3409.9357627844
scalar RSUExampleScenario.node[123].veinsmobility 	totalCO2Emission 	706.38453320504
scalar RSUExampleScenario.node[124].veinsmobility 	startTime 	744.1
scalar RSUExampleScenario.node[124].veinsmobility 	totalTime 	227.1
scalar RSUExampleScenario.node[124].veinsmobility 	stopTime 	971.3
scalar RSUExampleScenario.node[124].veinsmobility 	minSpeed 	0.2554854467921
scalar RSUExampleScenario.node[124].veinsmobility 	maxSpeed 	18.999461392188
scalar RSUExampleScenario.node[124].veinsmobility 	totalDistance 	3409.7597508173
scalar RSUExampleScenario.node[124].veinsmobility 	totalCO2Emission 	707.62602010029
scalar RSUExampleScenario.node[125].veinsmobility 	startTime 	750.1
scalar RSUExampleScenario.node[125].veinsmobility 	totalTime 	226.7
scalar RSUExampleScenario.node[125].veinsmobility 	stopTime 	976.9
scalar RSUExampleScenario.node[125].veinsmobility 	minSpeed 	0.25295079315989
scalar RSUExampleScenario.node[125].veinsmobility 	maxSpeed 	18.999945251574
scalar RSUExampleScenario.node[125].veinsmobility 	totalDistance 	3409.2671404956
scalar RSUExampleScenario.node[125].veinsmobility 	totalCO2Emission 	707.58679781028
scalar RSUExampleScenario.node[126].veinsmobility 	startTime 	756.1
scalar RSUExampleScenario.node[126].veinsmobility 	totalTime 	227.3
scalar RSUExampleScenario.node[126].veinsmobility 	stopTime 	983.5
scalar RSUExampleScenario.node[126].veinsmobility 	minSpeed 	0.25151490375958
scalar RSUExampleScenario.node[126].veinsmobility 	maxSpeed 	18.999778567695
scalar RSUExampleScenario.node[126].veinsmobility 	totalDistance 	3409.3950654029
scalar RSUExampleScenario.node[126].veinsmobility 	totalCO2Emission 	704.85901705729
scalar RSUExampleScenario.node[127].veinsmobility 	startTime 	762.1
scalar RSUExampleScenario.node[127].veinsmobility 	totalTime 	226.7
scalar RSUExampleScenario.node[127].veinsmobility 	stopTime 	988.9
scalar RSUExampleScenario.node[127].veinsmobility 	minSpeed 	0.25392267972487
scalar RSUExampleScenario.node[127].veinsmobility 	maxSpeed 	18.999970073954
scalar RSUExampleScenario.node[127].veinsmobility 	totalDistance 	3409.2755535074
scalar RSUExampleScenario.node[127].veinsmobility 	totalCO2Emission 	709.89156165115
scalar RSUExampleScenario.node[128].veinsmobility 	startTime 	768.1
scalar RSUExampleScenario.node[128].veinsmobility 	totalTime 	227.1
scalar RSUExampleScenario.node[128].veinsmobility 	stopTime 	995.3
scalar RSUExampleScenario.node[128].veinsmobility 	minSpeed 	0.25963643170404
scalar RSUExampleScenario.node[128].veinsmobility 	maxSpeed 	18.999889349272
scalar RSUExampleScenario.node[128].veinsmobility 	totalDistance 	3409.2360940343
scalar RSUExampleScenario.node[128].veinsmobility 	totalCO2Emission 	708.58867482537
scalar RSUExampleScenario.node[129].veinsmobility 	startTime 	774.1
scalar RSUExampleScenario.node[129].veinsmobility 	totalTime 	226.8
scalar RSUExampleScenario.node[129].veinsmobility 	stopTime 	1001
scalar RSUExampleScenario.node[129].veinsmobility 	minSpeed 	0.25183448098274
scalar RSUExampleScenario.node[129].veinsmobility 	maxSpeed 	18.999508437261
scalar RSUExampleScenario.node[129].veinsmobility 	totalDistance 	3409.261749904
scalar RSUExampleScenario.node[129].veinsmobility 	totalCO2Emission 	707.708139686
scalar RSUExampleScenario.node[130].veinsmobility 	startTime 	780.1
scalar RSUExampleScenario.node[130].veinsmobility 	totalTime 	227
scalar RSUExampleScenario.node[130].veinsmobility 	stopTime 	1007.2
scalar RSUExampleScenario.node[130].veinsmobility 	minSpeed 	0.24987511939625
scalar RSUExampleScenario.node[130].veinsmobility 	maxSpeed 	18.999658447385
scalar RSUExampleScenario.node[130].veinsmobility 	totalDistance 	3409.4612393126
scalar RSUExampleScenario.node[130].veinsmobility 	totalCO2Emission 	705.3733288521
scalar RSUExampleScenario.node[131].veinsmobility 	startTime 	786.1
scalar RSUExampleScenario.node[131].veinsmobility 	totalTime 	226.8
scalar RSUExampleScenario.node[131].veinsmobility 	stopTime 	1013
scalar RSUExampleScenario.node[131].veinsmobility 	minSpeed 	0.24855526157585
scalar RSUExampleScenario.node[131].veinsmobility 	maxSpeed 	18.999996078843
scalar RSUExampleScenario.node[131].veinsmobility 	totalDistance 	3409.3556000925
scalar RSUExampleScenario.node[131].veinsmobility 	totalCO2Emission 	710.01687357868
scalar RSUExampleScenario.node[132].veinsmobility 	startTime 	792.1
scalar RSUExampleScenario.node[132].veinsmobility 	totalTime 	226.7
scalar RSUExampleScenario.node[132].veinsmobility 	stopTime 	1018.9
scalar RSUExampleScenario.node[132].veinsmobility 	minSpeed 	0.25042174385674
scalar RSUExampleScenario.node[132].veinsmobility 	maxSpeed 	18.999935566667
scalar RSUExampleScenario.node[132].veinsmobility 	totalDistance 	3409.2882126408
scalar RSUExampleScenario.node[132].veinsmobility 	totalCO2Emission 	705.87044161598
scalar RSUExampleScenario.node[133].veinsmobility 	startTime 	798.1
scalar RSUExampleScenario.node[133].veinsmobility 	totalTime 	226.8
scalar RSUExampleScenario.node[133].veinsmobility 	stopTime 	1025
scalar RSUExampleScenario.node[133].veinsmobility 	minSpeed 	0.2557398782915
scalar RSUExampleScenario.node[133].veinsmobility 	maxSpeed 	18.999557290119
scalar RSUExampleScenario.node[133].veinsmobility 	totalDistance 	3409.7878871464
scalar RSUExampleScenario.node[133].veinsmobility 	totalCO2Emission 	707.12538018855
scalar RSUExampleScenario.node[134].veinsmobility 	startTime 	804.1
scalar RSUExampleScenario.node[134].veinsmobility 	totalTime 	226.8
scalar RSUExampleScenario.node[134].veinsmobility 	stopTime 	1031
scalar RSUExampleScenario.node[134].veinsmobility 	minSpeed 	0.2587161043731
scalar RSUExampleScenario.node[134].veinsmobility 	maxSpeed 	18.999984979301
scalar RSUExampleScenario.node[134].veinsmobility 	totalDistance 	3409.2324997649
scalar RSUExampleScenario.node[134].veinsmobility 	totalCO2Emission 	705.35338325131
scalar RSUExampleScenario.node[135].veinsmobility 	startTime 	810.1
scalar RSUExampleScenario.node[135].veinsmobility 	totalTime 	226.9
scalar RSUExampleScenario.node[135].veinsmobility 	stopTime 	1037.1
scalar RSUExampleScenario.node[135].veinsmobility 	minSpeed 	0.25891200943897
scalar RSUExampleScenario.node[135].veinsmobility 	maxSpeed 	18.999381022064
scalar RSUExampleScenario.node[135].veinsmobility 	totalDistance 	3409.1331874737
scalar RSUExampleScenario.node[135].veinsmobility 	totalCO2Emission 	710.11663497803
scalar RSUExampleScenario.node[136].veinsmobility 	startTime 	816.1
scalar RSUExampleScenario.node[136].veinsmobility 	totalTime 	226.4
scalar RSUExampleScenario.node[136].veinsmobility 	stopTime 	1042.6
scalar RSUExampleScenario.node[136].veinsmobility 	minSpeed 	0.24717475514882
scalar RSUExampleScenario.node[136].veinsmobility 	maxSpeed 	18.999958251431
scalar RSUExampleScenario.node[136].veinsmobility 	totalDistance 	3409.2218920739
scalar RSUExampleScenario.node[136].veinsmobility 	totalCO2Emission 	705.47051056612
scalar RSUExampleScenario.node[137].veinsmobility 	startTime 	822.1
scalar RSUExampleScenario.node[137].veinsmobility 	totalTime 	226.6
scalar RSUExampleScenario.node[137].veinsmobility 	stopTime 	1048.8
scalar RSUExampleScenario.node[137].veinsmobility 	minSpeed 	0.25075772101502
scalar RSUExampleScenario.node[137].veinsmobility 	maxSpeed 	18.999953739019
scalar RSUExampleScenario.node[137].veinsmobility 	totalDistance 	3409.2996478437
scalar RSUExampleScenario.node[137].veinsmobility 	totalCO2Emission 	710.74913350184
scalar RSUExampleScenario.node[138].veinsmobility 	startTime 	828.1
scalar RSUExampleScenario.node[138].veinsmobility 	totalTime 	226.6
scalar RSUExampleScenario.node[138].veinsmobility 	stopTime 	1054.8
scalar RSUExampleScenario.node[138].veinsmobility 	minSpeed 	0.25630880219559
scalar RSUExampleScenario.node[138].veinsmobility 	maxSpeed 	18.999563733567
scalar RSUExampleScenario.node[138].veinsmobility 	totalDistance 	3409.5915714585
scalar RSUExampleScenario.node[138].veinsmobility 	totalCO2Emission 	705.68407514842
scalar RSUExampleScenario.node[139].veinsmobility 	startTime 	834.1
scalar RSUExampleScenario.node[139].veinsmobility 	totalTime 	226.6
scalar RSUExampleScenario.node[139].veinsmobility 	stopTime 	1060.8
scalar RSUExampleScenario.node[139].veinsmobility 	minSpeed 	0.25295956137101
scalar RSUExampleScenario.node[139].veinsmobility 	maxSpeed 	18.999987092672
scalar RSUExampleScenario.node[139].veinsmobility 	totalDistance 	3409.7167850041
scalar RSUExampleScenario.node[139].veinsmobility 	totalCO2Emission 	708.92605202709
scalar RSUExampleScenario.node[140].veinsmobility 	startTime 	840.1
scalar RSUExampleScenario.node[140].veinsmobility 	totalTime 	227
scalar RSUExampleScenario.node[140].veinsmobility 	stopTime 	1067.2
scalar RSUExampleScenario.node[140].veinsmobility 	minSpeed 	0.24915205939324
scalar RSUExampleScenario.node[140].veinsmobility 	maxSpeed 	18.999412348368
scalar RSUExampleScenario.node[140].veinsmobility 	totalDistance 	3409.932261577
scalar RSUExampleScenario.node[140].veinsmobility 	totalCO2Emission 	709.26818538386
scalar RSUExampleScenario.node[141].veinsmobility 	startTime 	846.1
scalar RSUExampleScenario.node[141].veinsmobility 	totalTime 	227.1
scalar RSUExampleScenario.node[141].veinsmobility 	stopTime 	1073.3
scalar RSUExampleScenario.node[141].veinsmobility 	minSpeed 	0.24750800709892
scalar RSUExampleScenario.node[141].veinsmobility 	maxSpeed 	18.999680757492
scalar RSUExampleScenario.node[141].veinsmobility 	totalDistance 	3409.3398811526
scalar RSUExampleScenario.node[141].veinsmobility 	totalCO2Emission 	706.25476368101
scalar RSUExampleScenario.node[142].veinsmobility 	startTime 	852.1
scalar RSUExampleScenario.node[142].veinsmobility 	totalTime 	226.9
scalar RSUExampleScenario.node[142].veinsmobility 	stopTime 	1079.1
scalar RSUExampleScenario.node[142].veinsmobility 	minSpeed 	0.25224330896139
scalar RSUExampleScenario.node[142].veinsmobility 	maxSpeed 	18.999915469028
scalar RSUExampleScenario.node[142].veinsmobility 	totalDistance 	3409.4612401362
scalar RSUExampleScenario.node[142].veinsmobility 	totalCO2Emission 	709.85050264476
scalar RSUExampleScenario.node[143].veinsmobility 	startTime 	858.1
scalar RSUExampleScenario.node[143].veinsmobility 	totalTime 	226.8
scalar RSUExampleScenario.node[143].veinsmobility 	stopTime 	1085
scalar RSUExampleScenario.node[143].veinsmobility 	minSpeed 	0.25876308227237
scalar RSUExampleScenario.node[143].veinsmobility 	maxSpeed 	18.999958944053
scalar RSUExampleScenario.node[143].veinsmobility 	totalDistance 	3409.3564929379
scalar RSUExampleScenario.node[143].veinsmobility 	totalCO2Emission 	710.6905236538
scalar RSUExampleScenario.node[144].veinsmobility 	startTime 	864.1
scalar RSUExampleScenario.node[144].veinsmobility 	totalTime 	226.8
scalar RSUExampleScenario.node[144].veinsmobility 	stopTime 	1091
scalar RSUExampleScenario.node[144].veinsmobility 	minSpeed 	0.24902848774381
scalar RSUExampleScenario.node[144].veinsmobility 	maxSpeed 	18.999971468097
scalar RSUExampleScenario.node[144].veinsmobility 	totalDistance 	3409.6174908233
scalar RSUExampleScenario.node[144].veinsmobility 	totalCO2Emission 	707.26039707851
scalar RSUExampleScenario.node[145].veinsmobility 	startTime 	870.1
scalar RSUExampleScenario.node[145].veinsmobility 	totalTime 	227
scalar RSUExampleScenario.node[145].veinsmobility 	stopTime 	1097.2
scalar RSUExampleScenario.node[145].veinsmobility 	minSpeed 	0.25246931375423
scalar RSUExampleScenario.node[145].veinsmobility 	maxSpeed 	18.99999407483
scalar RSUExampleScenario.node[145].veinsmobility 	totalDistance 	3409.2658753354
scalar RSUExampleScenario.node[145].veinsmobility 	totalCO2Emission 	703.19558965562
scalar RSUExampleScenario.node[146].veinsmobility 	startTime 	876.1
scalar RSUExampleScenario.node[146].veinsmobility 	totalTime 	227
scalar RSUExampleScenario.node[146].veinsmobility 	stopTime 	1103.2
scalar RSUExampleScenario.node[146].veinsmobility 	minSpeed 	0.25823642094247
scalar RSUExampleScenario.node[146].veinsmobility 	maxSpeed 	18.999434586558
scalar RSUExampleScenario.node[146].veinsmobility 	totalDistance 	3409.2977624226
scalar RSUExampleScenario.node[146].veinsmobility 	totalCO2Emission 	708.27849087903
scalar RSUExampleScenario.node[147].veinsmobility 	startTime 	882.1
scalar RSUExampleScenario.node[147].veinsmobility 	totalTime 	226.9
scalar RSUExampleScenario.node[147].veinsmobility 	stopTime 	1109.1
scalar RSUExampleScenario.node[147].veinsmobility 	minSpeed 	0.24725072014518
scalar RSUExampleScenario.node[147].veinsmobility 	maxSpeed 	18.999938376625
scalar RSUExampleScenario.node[147].veinsmobility 	totalDistance 	3409.2979380674
scalar RSUExampleScenario.node[147].veinsmobility 	totalCO2Emission 	702.41460360187
scalar RSUExampleScenario.node[148].veinsmobility 	startTime 	888.1
scalar RSUExampleScenario.node[148].veinsmobility 	totalTime 	226.8
scalar RSUExampleScenario.node[148].veinsmobility 	stopTime 	1115
scalar RSUExampleScenario.node[148].veinsmobility 	minSpeed 	0.25617785608489
scalar RSUExampleScenario.node[148].veinsmobility 	maxSpeed 	18.999968498414
scalar RSUExampleScenario.node[148].veinsmobility 	totalDistance 	3409.9707997368
scalar RSUExampleScenario.node[148].veinsmobility 	totalCO2Emission 	708.67595734867
scalar RSUExampleScenario.node[149].veinsmobility 	startTime 	894.1
scalar RSUExampleScenario.node[149].veinsmobility 	totalTime 	226.8
scalar RSUExampleScenario.node[149].veinsmobility 	stopTime 	1121
scalar RSUExampleScenario.node[149].veinsmobility 	minSpeed 	0.25300499043334
scalar RSUExampleScenario.node[149].veinsmobility 	maxSpeed 	18.999770914041
scalar RSUExampleScenario.node[149].veinsmobility 	totalDistance 	3409.2058334029
scalar RSUExampleScenario.node[149].veinsmobility 	totalCO2Emission 	709.65581851565
scalar RSUExampleScenario.node[150].veinsmobility 	startTime 	900.1
scalar RSUExampleScenario.node[150].veinsmobility 	totalTime 	226.7
scalar RSUExampleScenario.node[150].veinsmobility 	stopTime 	1126.9
scalar RSUExampleScenario.node[150].veinsmobility 	minSpeed 	0.24899220822076
scalar RSUExampleScenario.node[150].veinsmobility 	maxSpeed 	18.999743963308
scalar RSUExampleScenario.node[150].veinsmobility 	totalDistance 	3409.4240138972
scalar RSUExampleScenario.node[150].veinsmobility 	totalCO2Emission 	705.76855611145
scalar RSUExampleScenario.node[151].veinsmobility 	startTime 	906.1
scalar RSUExampleScenario.node[151].veinsmobility 	totalTime 	227
scalar RSUExampleScenario.node[151].veinsmobility 	stopTime 	1133.2
scalar RSUExampleScenario.node[151].veinsmobility 	minSpeed 	0.24871138254623
scalar RSUExampleScenario.node[151].veinsmobility 	maxSpeed 	18.999964371496
scalar RSUExampleScenario.node[151].veinsmobility 	totalDistance 	3409.7681196187
scalar RSUExampleScenario.node[151].veinsmobility 	totalCO2Emission 	706.39269217728
scalar RSUExampleScenario.node[152].veinsmobility 	startTime 	912.1
scalar RSUExampleScenario.node[152].veinsmobility 	totalTime 	226.8
scalar RSUExampleScenario.node[152].veinsmobility 	stopTime 	1139
scalar RSUExampleScenario.node[152].veinsmobility 	minSpeed 	0.25490290260408
scalar RSUExampleScenario.node[152].veinsmobility 	maxSpeed 	18.999556441163
scalar RSUExampleScenario.node[152].veinsmobility 	totalDistance 	3409.3891353389
scalar RSUExampleScenario.node[152].veinsmobility 	totalCO2Emission 	709.97972062138
[...]
scalar RSUExampleScenario.node[262].veinsmobility 	startTime 	1572.1
scalar RSUExampleScenario.node[262].veinsmobility 	totalTime 	227
scalar RSUExampleScenario.node[262].veinsmobility 	stopTime 	1799.2
scalar RSUExampleScenario.node[262].veinsmobility 	minSpeed 	0.24806955232238
scalar RSUExampleScenario.node[262].veinsmobility 	maxSpeed 	18.999838333644
scalar RSUExampleScenario.node[262].veinsmobility 	totalDistance 	3409.6852099455
scalar RSUExampleScenario.node[262].veinsmobility 	totalCO2Emission 	707.31784913696
scalar RSUExampleScenario.node[263].veinsmobility 	startTime 	1578.1
scalar RSUExampleScenario.node[263].veinsmobility 	totalTime 	227.2
scalar RSUExampleScenario.node[263].veinsmobility 	stopTime 	1805.4
scalar RSUExampleScenario.node[263].veinsmobility 	minSpeed 	0.25898812992801
scalar RSUExampleScenario.node[263].veinsmobility 	maxSpeed 	18.999776034083
scalar RSUExampleScenario.node[263].veinsmobility 	totalDistance 	3409.4668122772
scalar RSUExampleScenario.node[263].veinsmobility 	totalCO2Emission 	710.03760725373
scalar RSUExampleScenario.node[264].veinsmobility 	startTime 	1584.1
scalar RSUExampleScenario.node[264].veinsmobility 	totalTime 	226.8
scalar RSUExampleScenario.node[264].veinsmobility 	stopTime 	1811
scalar RSUExampleScenario.node[264].veinsmobility 	minSpeed 	0.25377388571319
scalar RSUExampleScenario.node[264].veinsmobility 	maxSpeed 	18.999775456085
scalar RSUExampleScenario.node[264].veinsmobility 	totalDistance 	3409.0886467137
scalar RSUExampleScenario.node[264].veinsmobility 	totalCO2Emission 	711.47500365575
scalar RSUExampleScenario.node[265].veinsmobility 	startTime 	1590.1
scalar RSUExampleScenario.node[265].veinsmobility 	totalTime 	226.9
scalar RSUExampleScenario.node[265].veinsmobility 	stopTime 	1817.1
scalar RSUExampleScenario.node[265].veinsmobility 	minSpeed 	0.25946253392915
scalar RSUExampleScenario.node[265].veinsmobility 	maxSpeed 	18.999943265389
scalar RSUExampleScenario.node[265].veinsmobility 	totalDistance 	3409.3637051659
scalar RSUExampleScenario.node[265].veinsmobility 	totalCO2Emission 	709.33998330557
scalar RSUExampleScenario.node[266].veinsmobility 	startTime 	1596.1
scalar RSUExampleScenario.node[266].veinsmobility 	totalTime 	227
scalar RSUExampleScenario.node[266].veinsmobility 	stopTime 	1823.2
scalar RSUExampleScenario.node[266].veinsmobility 	minSpeed 	0.24969513113098
scalar RSUExampleScenario.node[266].veinsmobility 	maxSpeed 	18.999916666641
scalar RSUExampleScenario.node[266].veinsmobility 	totalDistance 	3408.9938248372
scalar RSUExampleScenario.node[266].veinsmobility 	totalCO2Emission 	706.73067933055
scalar RSUExampleScenario.node[267].veinsmobility 	startTime 	1602.1
scalar RSUExampleScenario.node[267].veinsmobility 	totalTime 	226.9
scalar RSUExampleScenario.node[267].veinsmobility 	stopTime 	1829.1
scalar RSUExampleScenario.node[267].veinsmobility 	minSpeed 	0.25563257665792
scalar RSUExampleScenario.node[267].veinsmobility 	maxSpeed 	18.999603948912
scalar RSUExampleScenario.node[267].veinsmobility 	totalDistance 	3409.1475267706
scalar RSUExampleScenario.node[267].veinsmobility 	totalCO2Emission 	707.96251155534
scalar RSUExampleScenario.node[268].veinsmobility 	startTime 	1608.1
scalar RSUExampleScenario.node[268].veinsmobility 	totalTime 	226.8
scalar RSUExampleScenario.node[268].veinsmobility 	stopTime 	1835
scalar RSUExampleScenario.node[268].veinsmobility 	minSpeed 	0.25399471958121
scalar RSUExampleScenario.node[268].veinsmobility 	maxSpeed 	18.99979258386
scalar RSUExampleScenario.node[268].veinsmobility 	totalDistance 	3409.1850254257
scalar RSUExampleScenario.node[268].veinsmobility 	totalCO2Emission 	707.89668216739
scalar RSUExampleScenario.node[269].veinsmobility 	startTime 	1614.1
scalar RSUExampleScenario.node[269].veinsmobility 	totalTime 	226.7
scalar RSUExampleScenario.node[269].veinsmobility 	stopTime 	1840.9
scalar RSUExampleScenario.node[269].veinsmobility 	minSpeed 	0.24836725793383
scalar RSUExampleScenario.node[269].veinsmobility 	maxSpeed 	18.999444071818
scalar RSUExampleScenario.node[269].veinsmobility 	totalDistance 	3409.6487757514
scalar RSUExampleScenario.node[269].veinsmobility 	totalCO2Emission 	708.00252999187
scalar RSUExampleScenario.node[270].veinsmobility 	startTime 	1620.1
scalar RSUExampleScenario.node[270].veinsmobility 	totalTime 	226.8
scalar RSUExampleScenario.node[270].veinsmobility 	stopTime 	1847
scalar RSUExampleScenario.node[270].veinsmobility 	minSpeed 	0.25997749537579
scalar RSUExampleScenario.node[270].veinsmobility 	maxSpeed 	18.999726374492
scalar RSUExampleScenario.node[270].veinsmobility 	totalDistance 	3409.4224907163
scalar RSUExampleScenario.node[270].veinsmobility 	totalCO2Emission 	701.54541697657
scalar RSUExampleScenario.node[271].veinsmobility 	startTime 	1626.1
scalar RSUExampleScenario.node[271].veinsmobility 	totalTime 	226.7
scalar RSUExampleScenario.node[271].veinsmobility 	stopTime 	1852.9
scalar RSUExampleScenario.node[271].veinsmobility 	minSpeed 	0.25700046801893
scalar RSUExampleScenario.node[271].veinsmobility 	maxSpeed 	18.999234530169
scalar RSUExampleScenario.node[271].veinsmobility 	totalDistance 	3409.7138008094
scalar RSUExampleScenario.node[271].veinsmobility 	totalCO2Emission 	707.00626942214
scalar RSUExampleScenario.node[272].veinsmobility 	startTime 	1632.1
scalar RSUExampleScenario.node[272].veinsmobility 	totalTime 	227.1
scalar RSUExampleScenario.node[272].veinsmobility 	stopTime 	1859.3
scalar RSUExampleScenario.node[272].veinsmobility 	minSpeed 	0.25338576026354
scalar RSUExampleScenario.node[272].veinsmobility 	maxSpeed 	18.999186240658
scalar RSUExampleScenario.node[272].veinsmobility 	totalDistance 	3409.594510914
scalar RSUExampleScenario.node[272].veinsmobility 	totalCO2Emission 	706.62095536132
scalar RSUExampleScenario.node[273].veinsmobility 	startTime 	1638.1
scalar RSUExampleScenario.node[273].veinsmobility 	totalTime 	226.9
scalar RSUExampleScenario.node[273].veinsmobility 	stopTime 	1865.1
scalar RSUExampleScenario.node[273].veinsmobility 	minSpeed 	0.25885502124554
scalar RSUExampleScenario.node[273].veinsmobility 	maxSpeed 	18.999720920958
scalar RSUExampleScenario.node[273].veinsmobility 	totalDistance 	3409.3299818017
scalar RSUExampleScenario.node[273].veinsmobility 	totalCO2Emission 	708.4519036709
scalar RSUExampleScenario.node[274].veinsmobility 	startTime 	1644.1
scalar RSUExampleScenario.node[274].veinsmobility 	totalTime 	226.8
scalar RSUExampleScenario.node[274].veinsmobility 	stopTime 	1871
scalar RSUExampleScenario.node[274].veinsmobility 	minSpeed 	0.25239138597902
scalar RSUExampleScenario.node[274].veinsmobility 	maxSpeed 	18.999920798766
scalar RSUExampleScenario.node[274].veinsmobility 	totalDistance 	3409.0848023154
scalar RSUExampleScenario.node[274].veinsmobility 	totalCO2Emission 	706.23173054132
scalar RSUExampleScenario.node[275].veinsmobility 	startTime 	1650.1
scalar RSUExampleScenario.node[275].veinsmobility 	totalTime 	226.8
scalar RSUExampleScenario.node[275].veinsmobility 	stopTime 	1877
scalar RSUExampleScenario.node[275].veinsmobility 	minSpeed 	0.25250010945415
scalar RSUExampleScenario.node[275].veinsmobility 	maxSpeed 	18.999650428488
scalar RSUExampleScenario.node[275].veinsmobility 	totalDistance 	3409.2697901027
scalar RSUExampleScenario.node[275].veinsmobility 	totalCO2Emission 	706.52116239914
scalar RSUExampleScenario.node[276].veinsmobility 	startTime 	1656.1
scalar RSUExampleScenario.node[276].veinsmobility 	totalTime 	226.6
scalar RSUExampleScenario.node[276].veinsmobility 	stopTime 	1882.8
scalar RSUExampleScenario.node[276].veinsmobility 	minSpeed 	0.2483370811597
scalar RSUExampleScenario.node[276].veinsmobility 	maxSpeed 	18.999934501112
scalar RSUExampleScenario.node[276].veinsmobility 	totalDistance 	3409.5660973854
scalar RSUExampleScenario.node[276].veinsmobility 	totalCO2Emission 	710.00305603332
scalar RSUExampleScenario.node[277].veinsmobility 	startTime 	1662.1
scalar RSUExampleScenario.node[277].veinsmobility 	totalTime 	226.8
scalar RSUExampleScenario.node[277].veinsmobility 	stopTime 	1889
scalar RSUExampleScenario.node[277].veinsmobility 	minSpeed 	0.25988674667594
scalar RSUExampleScenario.node[277].veinsmobility 	maxSpeed 	18.99982558362
scalar RSUExampleScenario.node[277].veinsmobility 	totalDistance 	3409.3676483717
scalar RSUExampleScenario.node[277].veinsmobility 	totalCO2Emission 	710.42745526573
scalar RSUExampleScenario.node[278].veinsmobility 	startTime 	1668.1
scalar RSUExampleScenario.node[278].veinsmobility 	totalTime 	227
scalar RSUExampleScenario.node[278].veinsmobility 	stopTime 	1895.2
scalar RSUExampleScenario.node[278].veinsmobility 	minSpeed 	0.25857730524312
scalar RSUExampleScenario.node[278].veinsmobility 	maxSpeed 	18.99971576523
scalar RSUExampleScenario.node[278].veinsmobility 	totalDistance 	3409.340309242
scalar RSUExampleScenario.node[278].veinsmobility 	totalCO2Emission 	707.34349192105
scalar RSUExampleScenario.node[279].veinsmobility 	startTime 	1674.1
scalar RSUExampleScenario.node[279].veinsmobility 	totalTime 	227.1
scalar RSUExampleScenario.node[279].veinsmobility 	stopTime 	1901.3
scalar RSUExampleScenario.node[279].veinsmobility 	minSpeed 	0.25852698413609
scalar RSUExampleScenario.node[279].veinsmobility 	maxSpeed 	18.999662170135
scalar RSUExampleScenario.node[279].veinsmobility 	totalDistance 	3409.5450465754
scalar RSUExampleScenario.node[279].veinsmobility 	totalCO2Emission 	705.14051936162
scalar RSUExampleScenario.node[280].veinsmobility 	startTime 	1680.1
scalar RSUExampleScenario.node[280].veinsmobility 	totalTime 	227.1
scalar RSUExampleScenario.node[280].veinsmobility 	stopTime 	1907.3
scalar RSUExampleScenario.node[280].veinsmobility 	minSpeed 	0.24951094646403
scalar RSUExampleScenario.node[280].veinsmobility 	maxSpeed 	18.999707820157
scalar RSUExampleScenario.node[280].veinsmobility 	totalDistance 	3409.2608724161
scalar RSUExampleScenario.node[280].veinsmobility 	totalCO2Emission 	708.73433878445
scalar RSUExampleScenario.node[281].veinsmobility 	startTime 	1686.1
scalar RSUExampleScenario.node[281].veinsmobility 	totalTime 	226.8
scalar RSUExampleScenario.node[281].veinsmobility 	stopTime 	1913
scalar RSUExampleScenario.node[281].veinsmobility 	minSpeed 	0.24854080206365
scalar RSUExampleScenario.node[281].veinsmobility 	maxSpeed 	18.999926463298
scalar RSUExampleScenario.node[281].veinsmobility 	totalDistance 	3409.1963134547
scalar RSUExampleScenario.node[281].veinsmobility 	totalCO2Emission 	707.47540265788
scalar RSUExampleScenario.node[282].veinsmobility 	startTime 	1692.1
scalar RSUExampleScenario.node[282].veinsmobility 	totalTime 	227
scalar RSUExampleScenario.node[282].veinsmobility 	stopTime 	1919.2
scalar RSUExampleScenario.node[282].veinsmobility 	minSpeed 	0.25681515583326
scalar RSUExampleScenario.node[282].veinsmobility 	maxSpeed 	18.999636762978
scalar RSUExampleScenario.node[282].veinsmobility 	totalDistance 	3409.381868887
scalar RSUExampleScenario.node[282].veinsmobility 	totalCO2Emission 	706.72298731148
scalar RSUExampleScenario.node[283].veinsmobility 	startTime 	1698.1
scalar RSUExampleScenario.node[283].veinsmobility 	totalTime 	226.8
scalar RSUExampleScenario.node[283].veinsmobility 	stopTime 	1925
scalar RSUExampleScenario.node[283].veinsmobility 	minSpeed 	0.25964361420576
scalar RSUExampleScenario.node[283].veinsmobility 	maxSpeed 	18.999968083168
scalar RSUExampleScenario.node[283].veinsmobility 	totalDistance 	3409.4583529897
scalar RSUExampleScenario.node[283].veinsmobility 	totalCO2Emission 	710.58545100697
scalar RSUExampleScenario.node[284].veinsmobility 	startTime 	1704.1
scalar RSUExampleScenario.node[284].veinsmobility 	totalTime 	226.9
scalar RSUExampleScenario.node[284].veinsmobility 	stopTime 	1931.1
scalar RSUExampleScenario.node[284].veinsmobility 	minSpeed 	0.25215886082989
scalar RSUExampleScenario.node[284].veinsmobility 	maxSpeed 	18.999716898433
scalar RSUExampleScenario.node[284].veinsmobility 	totalDistance 	3409.5462883253
scalar RSUExampleScenario.node[284].veinsmobility 	totalCO2Emission 	709.75838979652
scalar RSUExampleScenario.node[285].veinsmobility 	startTime 	1710.1
scalar RSUExampleScenario.node[285].veinsmobility 	totalTime 	226.8
scalar RSUExampleScenario.node[285].veinsmobility 	stopTime 	1937
scalar RSUExampleScenario.node[285].veinsmobility 	minSpeed 	0.25137061145972
scalar RSUExampleScenario.node[285].veinsmobility 	maxSpeed 	18.999748817475
scalar RSUExampleScenario.node[285].veinsmobility 	totalDistance 	3409.5709411172
scalar RSUExampleScenario.node[285].veinsmobility 	totalCO2Emission 	706.04100422848
scalar RSUExampleScenario.node[286].veinsmobility 	startTime 	1716.1
scalar RSUExampleScenario.node[286].veinsmobility 	totalTime 	226.7
scalar RSUExampleScenario.node[286].veinsmobility 	stopTime 	1942.9
scalar RSUExampleScenario.node[286].veinsmobility 	minSpeed 	0.25338868356356
scalar RSUExampleScenario.node[286].veinsmobility 	maxSpeed 	18.999524923081
scalar RSUExampleScenario.node[286].veinsmobility 	totalDistance 	3409.6549389942
scalar RSUExampleScenario.node[286].veinsmobility 	totalCO2Emission 	703.00122156443
scalar RSUExampleScenario.node[287].veinsmobility 	startTime 	1722.1
scalar RSUExampleScenario.node[287].veinsmobility 	totalTime 	226.9
scalar RSUExampleScenario.node[287].veinsmobility 	stopTime 	1949.1
scalar RSUExampleScenario.node[287].veinsmobility 	minSpeed 	0.25355883286963
scalar RSUExampleScenario.node[287].veinsmobility 	maxSpeed 	18.999853381978
scalar RSUExampleScenario.node[287].veinsmobility 	totalDistance 	3409.3255656895
scalar RSUExampleScenario.node[287].veinsmobility 	totalCO2Emission 	704.95867392239
scalar RSUExampleScenario.node[288].veinsmobility 	startTime 	1728.1
scalar RSUExampleScenario.node[288].veinsmobility 	totalTime 	226.7
scalar RSUExampleScenario.node[288].veinsmobility 	stopTime 	1954.9
scalar RSUExampleScenario.node[288].veinsmobility 	minSpeed 	0.24823056399962
scalar RSUExampleScenario.node[288].veinsmobility 	maxSpeed 	18.99920165932
scalar RSUExampleScenario.node[288].veinsmobility 	totalDistance 	3409.7490540635
scalar RSUExampleScenario.node[288].veinsmobility 	totalCO2Emission 	708.90047858343
scalar RSUExampleScenario.node[289].veinsmobility 	startTime 	1734.1
scalar RSUExampleScenario.node[289].veinsmobility 	totalTime 	226.8
scalar RSUExampleScenario.node[289].veinsmobility 	stopTime 	1961
scalar RSUExampleScenario.node[289].veinsmobility 	minSpeed 	0.2552021898448
scalar RSUExampleScenario.node[289].veinsmobility 	maxSpeed 	18.999808709188
scalar RSUExampleScenario.node[289].veinsmobility 	totalDistance 	3409.8938405928
scalar RSUExampleScenario.node[289].veinsmobility 	totalCO2Emission 	708.75219584007
scalar RSUExampleScenario.node[290].veinsmobility 	startTime 	1740.1
scalar RSUExampleScenario.node[290].veinsmobility 	totalTime 	226.9
scalar RSUExampleScenario.node[290].veinsmobility 	stopTime 	1967.1
scalar RSUExampleScenario.node[290].veinsmobility 	minSpeed 	0.251657240442
scalar RSUExampleScenario.node[290].veinsmobility 	maxSpeed 	18.999644857121
scalar RSUExampleScenario.node[290].veinsmobility 	totalDistance 	3409.5724710553
scalar RSUExampleScenario.node[290].veinsmobility 	totalCO2Emission 	706.65406613603
scalar RSUExampleScenario.node[291].veinsmobility 	startTime 	1746.1
scalar RSUExampleScenario.node[291].veinsmobility 	totalTime 	227.4
scalar RSUExampleScenario.node[291].veinsmobility 	stopTime 	1973.6
scalar RSUExampleScenario.node[291].veinsmobility 	minSpeed 	0.2574582158362
scalar RSUExampleScenario.node[291].veinsmobility 	maxSpeed 	18.999829546334
scalar RSUExampleScenario.node[291].veinsmobility 	totalDistance 	3409.4132545836
scalar RSUExampleScenario.node[291].veinsmobility 	totalCO2Emission 	709.39315944494
scalar RSUExampleScenario.node[292].veinsmobility 	startTime 	1752.1
scalar RSUExampleScenario.node[292].veinsmobility 	totalTime 	226.9
scalar RSUExampleScenario.node[292].veinsmobility 	stopTime 	1979.1
scalar RSUExampleScenario.node[292].veinsmobility 	minSpeed 	0.24798092637071
scalar RSUExampleScenario.node[292].veinsmobility 	maxSpeed 	18.999956231224
scalar RSUExampleScenario.node[292].veinsmobility 	totalDistance 	3409.7318154436
scalar RSUExampleScenario.node[292].veinsmobility 	totalCO2Emission 	705.1321827146
scalar RSUExampleScenario.node[293].veinsmobility 	startTime 	1758.1
scalar RSUExampleScenario.node[293].veinsmobility 	totalTime 	226.8
scalar RSUExampleScenario.node[293].veinsmobility 	stopTime 	1985
scalar RSUExampleScenario.node[293].veinsmobility 	minSpeed 	0.25020651575853
scalar RSUExampleScenario.node[293].veinsmobility 	maxSpeed 	18.999840383544
scalar RSUExampleScenario.node[293].veinsmobility 	totalDistance 	3409.2815771109
scalar RSUExampleScenario.node[293].veinsmobility 	totalCO2Emission 	706.53275862615
scalar RSUExampleScenario.node[294].veinsmobility 	startTime 	1764.1
scalar RSUExampleScenario.node[294].veinsmobility 	totalTime 	226.7
scalar RSUExampleScenario.node[294].veinsmobility 	stopTime 	1990.9
scalar RSUExampleScenario.node[294].veinsmobility 	minSpeed 	0.24932770122448
scalar RSUExampleScenario.node[294].veinsmobility 	maxSpeed 	18.999938716716
scalar RSUExampleScenario.node[294].veinsmobility 	totalDistance 	3409.426775724
scalar RSUExampleScenario.node[294].veinsmobility 	totalCO2Emission 	708.06000538153
scalar RSUExampleScenario.node[295].veinsmobility 	startTime 	1770.1
scalar RSUExampleScenario.node[295].veinsmobility 	totalTime 	226.9
scalar RSUExampleScenario.node[295].veinsmobility 	stopTime 	1997.1
scalar RSUExampleScenario.node[295].veinsmobility 	minSpeed 	0.25800442149979
scalar RSUExampleScenario.node[295].veinsmobility 	maxSpeed 	18.999762512618
scalar RSUExampleScenario.node[295].veinsmobility 	totalDistance 	3409.2652600953
scalar RSUExampleScenario.node[295].veinsmobility 	totalCO2Emission 	703.63658692067
scalar RSUExampleScenario.node[296].veinsmobility 	startTime 	1776.1
scalar RSUExampleScenario.node[296].veinsmobility 	totalTime 	223.8
scalar RSUExampleScenario.node[296].veinsmobility 	stopTime 	2000
scalar RSUExampleScenario.node[296].veinsmobility 	minSpeed 	0.24956515083229
scalar RSUExampleScenario.node[296].veinsmobility 	maxSpeed 	18.999286354557
scalar RSUExampleScenario.node[296].veinsmobility 	totalDistance 	3387.6135847071
scalar RSUExampleScenario.node[296].veinsmobility 	totalCO2Emission 	694.73640866387
scalar RSUExampleScenario.node[297].veinsmobility 	startTime 	1782.1
scalar RSUExampleScenario.node[297].veinsmobility 	totalTime 	217.8
scalar RSUExampleScenario.node[297].veinsmobility 	stopTime 	2000
scalar RSUExampleScenario.node[297].veinsmobility 	minSpeed 	0.25895222804346
scalar RSUExampleScenario.node[297].veinsmobility 	maxSpeed 	18.999833221019
scalar RSUExampleScenario.node[297].veinsmobility 	totalDistance 	3326.3159295935
scalar RSUExampleScenario.node[297].veinsmobility 	totalCO2Emission 	681.95254401299
scalar RSUExampleScenario.node[298].veinsmobility 	startTime 	1788.1
scalar RSUExampleScenario.node[298].veinsmobility 	totalTime 	211.8
scalar RSUExampleScenario.node[298].veinsmobility 	stopTime 	2000
scalar RSUExampleScenario.node[298].veinsmobility 	minSpeed 	0.25836989673623
scalar RSUExampleScenario.node[298].veinsmobility 	maxSpeed 	18.998769421859
scalar RSUExampleScenario.node[298].veinsmobility 	totalDistance 	3239.5309411572
scalar RSUExampleScenario.node[298].veinsmobility 	totalCO2Emission 	668.94875509102
scalar RSUExampleScenario.node[299].veinsmobility 	startTime 	1794.1
scalar RSUExampleScenario.node[299].veinsmobility 	totalTime 	205.8
scalar RSUExampleScenario.node[299].veinsmobility 	stopTime 	2000
scalar RSUExampleScenario.node[299].veinsmobility 	minSpeed 	0.25393752569868
scalar RSUExampleScenario.node[299].veinsmobility 	maxSpeed 	18.999890865244
scalar RSUExampleScenario.node[299].veinsmobility 	totalDistance 	3156.1737582868
scalar RSUExampleScenario.node[299].veinsmobility 	totalCO2Emission 	654.77824085436
