version 2
run statistic5-521-20150313-19:30:32-21976
attr c 9
attr configname statistic5
attr datetime 20150313-19:30:32
attr experiment statistic5
attr inifile omnetpp.ini
attr iterationvars "$p=1/5, $c=9"
attr iterationvars2 "$p=1/5, $c=9, $repetition=21"
attr measurement "$p=1/5, $c=9"
attr network RSUExampleScenario
attr p 1/5
attr processid 21976
attr repetition 21
attr replication #21
attr resultdir results
attr runnumber 521
attr seedset 521

scalar . 	c 	9
scalar RSUExampleScenario.rsu[0].appl 	NumberofCH 	24
scalar RSUExampleScenario.rsu[0].appl 	NumberofON 	76
scalar RSUExampleScenario.rsu[0].appl 	NumberofFN 	0
scalar RSUExampleScenario.rsu[0].appl 	meanClusterNodes 	24
scalar RSUExampleScenario.rsu[0].appl 	varClusterNodes 	4.8989794855664
scalar RSUExampleScenario.rsu[0].appl 	sumCHutility 	752.07855671522
scalar RSUExampleScenario.rsu[0].appl 	meanCHutility 	24
scalar RSUExampleScenario.rsu[0].appl 	varCHutility 	4.8989794855664
scalar RSUExampleScenario.rsu[0].appl 	sumDiffCHutility 	65.431155228849
scalar RSUExampleScenario.rsu[0].appl 	meanDiffCHutility 	24
scalar RSUExampleScenario.rsu[0].appl 	varDiffCHutility 	4.8989794855664
scalar RSUExampleScenario.rsu[0].appl 	expectedCHutility 	817.50971194407
scalar RSUExampleScenario.rsu[0].appl 	meanExpectedCHutility 	24
scalar RSUExampleScenario.rsu[0].appl 	varExpectedCHutility 	4.8989794855664
