version 2
run statisticRVV-148-20150327-08:30:03-14052
attr c 16
attr configname statisticRVV
attr datetime 20150327-08:30:03
attr experiment statisticRVV
attr inifile omnetpp.ini
attr iterationvars "$sc=\"erlangen-medium.launchd.xml\", $p=1/15, $c=16"
attr iterationvars2 "$sc=\"erlangen-medium.launchd.xml\", $p=1/15, $c=16, $repetition=8"
attr measurement "$sc=\"erlangen-medium.launchd.xml\", $p=1/15, $c=16"
attr network RSUExampleScenario
attr p 1/15
attr processid 14052
attr repetition 8
attr replication #8
attr resultdir results
attr runnumber 148
attr sc "\"erlangen-medium.launchd.xml\""
attr seedset 148

scalar . 	c 	16
scalar RSUExampleScenario.node[0].veinsmobility 	startTime 	0.1
scalar RSUExampleScenario.node[0].veinsmobility 	totalTime 	264.3
scalar RSUExampleScenario.node[0].veinsmobility 	stopTime 	264.5
scalar RSUExampleScenario.node[0].veinsmobility 	minSpeed 	0.25251972387941
scalar RSUExampleScenario.node[0].veinsmobility 	maxSpeed 	13.999986071491
scalar RSUExampleScenario.node[0].veinsmobility 	totalDistance 	3409.7937211923
scalar RSUExampleScenario.node[0].veinsmobility 	totalCO2Emission 	691.78889630244
scalar RSUExampleScenario.node[1].veinsmobility 	startTime 	3.1
scalar RSUExampleScenario.node[1].veinsmobility 	totalTime 	265.2
scalar RSUExampleScenario.node[1].veinsmobility 	stopTime 	268.4
scalar RSUExampleScenario.node[1].veinsmobility 	minSpeed 	0.24741888488247
scalar RSUExampleScenario.node[1].veinsmobility 	maxSpeed 	13.99979366821
scalar RSUExampleScenario.node[1].veinsmobility 	totalDistance 	3409.5448187794
scalar RSUExampleScenario.node[1].veinsmobility 	totalCO2Emission 	689.94137780577
scalar RSUExampleScenario.node[2].veinsmobility 	startTime 	6.1
scalar RSUExampleScenario.node[2].veinsmobility 	totalTime 	265.9
scalar RSUExampleScenario.node[2].veinsmobility 	stopTime 	272.1
scalar RSUExampleScenario.node[2].veinsmobility 	minSpeed 	0.25297446999955
scalar RSUExampleScenario.node[2].veinsmobility 	maxSpeed 	13.999938635356
scalar RSUExampleScenario.node[2].veinsmobility 	totalDistance 	3409.8259115945
scalar RSUExampleScenario.node[2].veinsmobility 	totalCO2Emission 	692.96736927823
scalar RSUExampleScenario.node[3].veinsmobility 	startTime 	9.1
scalar RSUExampleScenario.node[3].veinsmobility 	totalTime 	266.3
scalar RSUExampleScenario.node[3].veinsmobility 	stopTime 	275.5
scalar RSUExampleScenario.node[3].veinsmobility 	minSpeed 	0.25552042655647
scalar RSUExampleScenario.node[3].veinsmobility 	maxSpeed 	13.999976411131
scalar RSUExampleScenario.node[3].veinsmobility 	totalDistance 	3409.5539483927
scalar RSUExampleScenario.node[3].veinsmobility 	totalCO2Emission 	693.54900914149
scalar RSUExampleScenario.node[4].veinsmobility 	startTime 	12.1
scalar RSUExampleScenario.node[4].veinsmobility 	totalTime 	266.6
scalar RSUExampleScenario.node[4].veinsmobility 	stopTime 	278.8
scalar RSUExampleScenario.node[4].veinsmobility 	minSpeed 	0.25066362764849
scalar RSUExampleScenario.node[4].veinsmobility 	maxSpeed 	13.999919810214
scalar RSUExampleScenario.node[4].veinsmobility 	totalDistance 	3409.1616690531
scalar RSUExampleScenario.node[4].veinsmobility 	totalCO2Emission 	691.32227450349
scalar RSUExampleScenario.node[5].veinsmobility 	startTime 	15.1
scalar RSUExampleScenario.node[5].veinsmobility 	totalTime 	266.9
scalar RSUExampleScenario.node[5].veinsmobility 	stopTime 	282.1
scalar RSUExampleScenario.node[5].veinsmobility 	minSpeed 	0.25299016037141
scalar RSUExampleScenario.node[5].veinsmobility 	maxSpeed 	13.999996160839
scalar RSUExampleScenario.node[5].veinsmobility 	totalDistance 	3413.953634779
scalar RSUExampleScenario.node[5].veinsmobility 	totalCO2Emission 	694.28838764978
scalar RSUExampleScenario.node[6].veinsmobility 	startTime 	18.1
scalar RSUExampleScenario.node[6].veinsmobility 	totalTime 	266.9
scalar RSUExampleScenario.node[6].veinsmobility 	stopTime 	285.1
scalar RSUExampleScenario.node[6].veinsmobility 	minSpeed 	0.25708589710249
scalar RSUExampleScenario.node[6].veinsmobility 	maxSpeed 	13.999928089022
scalar RSUExampleScenario.node[6].veinsmobility 	totalDistance 	3409.1345398722
scalar RSUExampleScenario.node[6].veinsmobility 	totalCO2Emission 	690.37231443612
scalar RSUExampleScenario.node[7].veinsmobility 	startTime 	21.1
scalar RSUExampleScenario.node[7].veinsmobility 	totalTime 	267
scalar RSUExampleScenario.node[7].veinsmobility 	stopTime 	288.2
scalar RSUExampleScenario.node[7].veinsmobility 	minSpeed 	0.25327149609779
scalar RSUExampleScenario.node[7].veinsmobility 	maxSpeed 	13.999910899228
scalar RSUExampleScenario.node[7].veinsmobility 	totalDistance 	3413.4328946755
scalar RSUExampleScenario.node[7].veinsmobility 	totalCO2Emission 	687.57408182896
scalar RSUExampleScenario.node[8].veinsmobility 	startTime 	24.1
scalar RSUExampleScenario.node[8].veinsmobility 	totalTime 	267.1
scalar RSUExampleScenario.node[8].veinsmobility 	stopTime 	291.3
scalar RSUExampleScenario.node[8].veinsmobility 	minSpeed 	0.25459560114588
scalar RSUExampleScenario.node[8].veinsmobility 	maxSpeed 	13.999944069306
scalar RSUExampleScenario.node[8].veinsmobility 	totalDistance 	3409.5784718313
scalar RSUExampleScenario.node[8].veinsmobility 	totalCO2Emission 	691.03258527808
scalar RSUExampleScenario.node[9].veinsmobility 	startTime 	27.1
scalar RSUExampleScenario.node[9].veinsmobility 	totalTime 	267.1
scalar RSUExampleScenario.node[9].veinsmobility 	stopTime 	294.3
scalar RSUExampleScenario.node[9].veinsmobility 	minSpeed 	0.25904079034762
scalar RSUExampleScenario.node[9].veinsmobility 	maxSpeed 	13.999943065802
scalar RSUExampleScenario.node[9].veinsmobility 	totalDistance 	3413.9596840281
scalar RSUExampleScenario.node[9].veinsmobility 	totalCO2Emission 	692.09029212468
scalar RSUExampleScenario.node[10].veinsmobility 	startTime 	30.1
scalar RSUExampleScenario.node[10].veinsmobility 	totalTime 	267.2
scalar RSUExampleScenario.node[10].veinsmobility 	stopTime 	297.4
scalar RSUExampleScenario.node[10].veinsmobility 	minSpeed 	0.25476683408511
scalar RSUExampleScenario.node[10].veinsmobility 	maxSpeed 	13.999949670064
scalar RSUExampleScenario.node[10].veinsmobility 	totalDistance 	3410.0027022248
scalar RSUExampleScenario.node[10].veinsmobility 	totalCO2Emission 	690.21400558921
scalar RSUExampleScenario.node[11].veinsmobility 	startTime 	33.1
scalar RSUExampleScenario.node[11].veinsmobility 	totalTime 	267.3
scalar RSUExampleScenario.node[11].veinsmobility 	stopTime 	300.5
scalar RSUExampleScenario.node[11].veinsmobility 	minSpeed 	0.25433211653191
scalar RSUExampleScenario.node[11].veinsmobility 	maxSpeed 	13.999543967515
scalar RSUExampleScenario.node[11].veinsmobility 	totalDistance 	3413.857209197
scalar RSUExampleScenario.node[11].veinsmobility 	totalCO2Emission 	693.49966283105
scalar RSUExampleScenario.node[12].veinsmobility 	startTime 	36.1
scalar RSUExampleScenario.node[12].veinsmobility 	totalTime 	267.4
scalar RSUExampleScenario.node[12].veinsmobility 	stopTime 	303.6
scalar RSUExampleScenario.node[12].veinsmobility 	minSpeed 	0.25087023313064
scalar RSUExampleScenario.node[12].veinsmobility 	maxSpeed 	13.999922384475
scalar RSUExampleScenario.node[12].veinsmobility 	totalDistance 	3409.7693825996
scalar RSUExampleScenario.node[12].veinsmobility 	totalCO2Emission 	690.46749249988
scalar RSUExampleScenario.node[13].veinsmobility 	startTime 	39.1
scalar RSUExampleScenario.node[13].veinsmobility 	totalTime 	267.5
scalar RSUExampleScenario.node[13].veinsmobility 	stopTime 	306.7
scalar RSUExampleScenario.node[13].veinsmobility 	minSpeed 	0.25776635154965
scalar RSUExampleScenario.node[13].veinsmobility 	maxSpeed 	13.999824539525
scalar RSUExampleScenario.node[13].veinsmobility 	totalDistance 	3413.8290086459
scalar RSUExampleScenario.node[13].veinsmobility 	totalCO2Emission 	692.72801085659
scalar RSUExampleScenario.node[14].veinsmobility 	startTime 	42.1
scalar RSUExampleScenario.node[14].veinsmobility 	totalTime 	267.6
scalar RSUExampleScenario.node[14].veinsmobility 	stopTime 	309.8
scalar RSUExampleScenario.node[14].veinsmobility 	minSpeed 	0.25833615782298
scalar RSUExampleScenario.node[14].veinsmobility 	maxSpeed 	13.999945534186
scalar RSUExampleScenario.node[14].veinsmobility 	totalDistance 	3409.566074126
scalar RSUExampleScenario.node[14].veinsmobility 	totalCO2Emission 	693.24689980617
scalar RSUExampleScenario.node[15].veinsmobility 	startTime 	45.1
scalar RSUExampleScenario.node[15].veinsmobility 	totalTime 	267.7
scalar RSUExampleScenario.node[15].veinsmobility 	stopTime 	312.9
scalar RSUExampleScenario.node[15].veinsmobility 	minSpeed 	0.25930441861646
scalar RSUExampleScenario.node[15].veinsmobility 	maxSpeed 	13.999785216239
scalar RSUExampleScenario.node[15].veinsmobility 	totalDistance 	3413.9628414903
scalar RSUExampleScenario.node[15].veinsmobility 	totalCO2Emission 	692.35628159193
scalar RSUExampleScenario.node[16].veinsmobility 	startTime 	48.1
scalar RSUExampleScenario.node[16].veinsmobility 	totalTime 	267.8
scalar RSUExampleScenario.node[16].veinsmobility 	stopTime 	316
scalar RSUExampleScenario.node[16].veinsmobility 	minSpeed 	0.24873602338787
scalar RSUExampleScenario.node[16].veinsmobility 	maxSpeed 	13.999830091188
scalar RSUExampleScenario.node[16].veinsmobility 	totalDistance 	3409.6161477693
scalar RSUExampleScenario.node[16].veinsmobility 	totalCO2Emission 	690.74313379729
scalar RSUExampleScenario.node[17].veinsmobility 	startTime 	51.1
scalar RSUExampleScenario.node[17].veinsmobility 	totalTime 	268
scalar RSUExampleScenario.node[17].veinsmobility 	stopTime 	319.2
scalar RSUExampleScenario.node[17].veinsmobility 	minSpeed 	0.25379973641154
scalar RSUExampleScenario.node[17].veinsmobility 	maxSpeed 	13.99998946538
scalar RSUExampleScenario.node[17].veinsmobility 	totalDistance 	3414.0566030802
scalar RSUExampleScenario.node[17].veinsmobility 	totalCO2Emission 	694.48426526784
scalar RSUExampleScenario.node[18].veinsmobility 	startTime 	54.1
scalar RSUExampleScenario.node[18].veinsmobility 	totalTime 	268.2
scalar RSUExampleScenario.node[18].veinsmobility 	stopTime 	322.4
scalar RSUExampleScenario.node[18].veinsmobility 	minSpeed 	0.25874375175778
scalar RSUExampleScenario.node[18].veinsmobility 	maxSpeed 	13.9999507358
scalar RSUExampleScenario.node[18].veinsmobility 	totalDistance 	3409.3303862115
scalar RSUExampleScenario.node[18].veinsmobility 	totalCO2Emission 	691.12231718665
scalar RSUExampleScenario.node[19].veinsmobility 	startTime 	57.1
scalar RSUExampleScenario.node[19].veinsmobility 	totalTime 	268.4
scalar RSUExampleScenario.node[19].veinsmobility 	stopTime 	325.6
scalar RSUExampleScenario.node[19].veinsmobility 	minSpeed 	0.25051824420295
scalar RSUExampleScenario.node[19].veinsmobility 	maxSpeed 	13.999971885735
scalar RSUExampleScenario.node[19].veinsmobility 	totalDistance 	3413.4508462475
scalar RSUExampleScenario.node[19].veinsmobility 	totalCO2Emission 	690.00619453931
scalar RSUExampleScenario.node[20].veinsmobility 	startTime 	60.1
scalar RSUExampleScenario.node[20].veinsmobility 	totalTime 	268.7
scalar RSUExampleScenario.node[20].veinsmobility 	stopTime 	328.9
scalar RSUExampleScenario.node[20].veinsmobility 	minSpeed 	0.25576585207763
scalar RSUExampleScenario.node[20].veinsmobility 	maxSpeed 	13.999890747804
scalar RSUExampleScenario.node[20].veinsmobility 	totalDistance 	3409.5303884215
scalar RSUExampleScenario.node[20].veinsmobility 	totalCO2Emission 	690.17615737018
scalar RSUExampleScenario.node[21].veinsmobility 	startTime 	63.1
scalar RSUExampleScenario.node[21].veinsmobility 	totalTime 	269.1
scalar RSUExampleScenario.node[21].veinsmobility 	stopTime 	332.3
scalar RSUExampleScenario.node[21].veinsmobility 	minSpeed 	0.25608515138924
scalar RSUExampleScenario.node[21].veinsmobility 	maxSpeed 	13.999989774658
scalar RSUExampleScenario.node[21].veinsmobility 	totalDistance 	3414.26603791
scalar RSUExampleScenario.node[21].veinsmobility 	totalCO2Emission 	692.2802129902
scalar RSUExampleScenario.node[22].veinsmobility 	startTime 	66.1
scalar RSUExampleScenario.node[22].veinsmobility 	totalTime 	269.6
scalar RSUExampleScenario.node[22].veinsmobility 	stopTime 	335.8
scalar RSUExampleScenario.node[22].veinsmobility 	minSpeed 	0.25802249293891
scalar RSUExampleScenario.node[22].veinsmobility 	maxSpeed 	13.999996936517
scalar RSUExampleScenario.node[22].veinsmobility 	totalDistance 	3410.0599001347
scalar RSUExampleScenario.node[22].veinsmobility 	totalCO2Emission 	695.01302331894
scalar RSUExampleScenario.node[23].veinsmobility 	startTime 	69.1
scalar RSUExampleScenario.node[23].veinsmobility 	totalTime 	270.2
scalar RSUExampleScenario.node[23].veinsmobility 	stopTime 	339.4
scalar RSUExampleScenario.node[23].veinsmobility 	minSpeed 	0.2544407136261
scalar RSUExampleScenario.node[23].veinsmobility 	maxSpeed 	13.999999586509
scalar RSUExampleScenario.node[23].veinsmobility 	totalDistance 	3414.2069936467
scalar RSUExampleScenario.node[23].veinsmobility 	totalCO2Emission 	689.99240928417
scalar RSUExampleScenario.node[24].veinsmobility 	startTime 	72.1
scalar RSUExampleScenario.node[24].veinsmobility 	totalTime 	270.8
scalar RSUExampleScenario.node[24].veinsmobility 	stopTime 	343
scalar RSUExampleScenario.node[24].veinsmobility 	minSpeed 	0.25255571632576
scalar RSUExampleScenario.node[24].veinsmobility 	maxSpeed 	13.999910131935
scalar RSUExampleScenario.node[24].veinsmobility 	totalDistance 	3409.8805105847
scalar RSUExampleScenario.node[24].veinsmobility 	totalCO2Emission 	694.24888730824
scalar RSUExampleScenario.node[25].veinsmobility 	startTime 	75.1
scalar RSUExampleScenario.node[25].veinsmobility 	totalTime 	271.4
scalar RSUExampleScenario.node[25].veinsmobility 	stopTime 	346.6
scalar RSUExampleScenario.node[25].veinsmobility 	minSpeed 	0.25804814730096
scalar RSUExampleScenario.node[25].veinsmobility 	maxSpeed 	13.999902068242
scalar RSUExampleScenario.node[25].veinsmobility 	totalDistance 	3414.0450847011
scalar RSUExampleScenario.node[25].veinsmobility 	totalCO2Emission 	694.89495854383
scalar RSUExampleScenario.node[26].veinsmobility 	startTime 	78.1
scalar RSUExampleScenario.node[26].veinsmobility 	totalTime 	272
scalar RSUExampleScenario.node[26].veinsmobility 	stopTime 	350.2
scalar RSUExampleScenario.node[26].veinsmobility 	minSpeed 	0.24990256342851
scalar RSUExampleScenario.node[26].veinsmobility 	maxSpeed 	13.99989576
scalar RSUExampleScenario.node[26].veinsmobility 	totalDistance 	3409.9316801102
scalar RSUExampleScenario.node[26].veinsmobility 	totalCO2Emission 	695.15282587905
scalar RSUExampleScenario.node[27].veinsmobility 	startTime 	81.1
scalar RSUExampleScenario.node[27].veinsmobility 	totalTime 	272.6
scalar RSUExampleScenario.node[27].veinsmobility 	stopTime 	353.8
scalar RSUExampleScenario.node[27].veinsmobility 	minSpeed 	0.25196191459079
scalar RSUExampleScenario.node[27].veinsmobility 	maxSpeed 	13.999999561054
scalar RSUExampleScenario.node[27].veinsmobility 	totalDistance 	3413.8241103884
scalar RSUExampleScenario.node[27].veinsmobility 	totalCO2Emission 	698.8627882969
scalar RSUExampleScenario.node[28].veinsmobility 	startTime 	84.1
scalar RSUExampleScenario.node[28].veinsmobility 	totalTime 	273.3
scalar RSUExampleScenario.node[28].veinsmobility 	stopTime 	357.5
scalar RSUExampleScenario.node[28].veinsmobility 	minSpeed 	0.25667263220972
scalar RSUExampleScenario.node[28].veinsmobility 	maxSpeed 	13.999991293808
scalar RSUExampleScenario.node[28].veinsmobility 	totalDistance 	3410.1496140077
scalar RSUExampleScenario.node[28].veinsmobility 	totalCO2Emission 	696.63902485752
scalar RSUExampleScenario.node[29].veinsmobility 	startTime 	87.1
scalar RSUExampleScenario.node[29].veinsmobility 	totalTime 	273.9
scalar RSUExampleScenario.node[29].veinsmobility 	stopTime 	361.1
scalar RSUExampleScenario.node[29].veinsmobility 	minSpeed 	0.24957665990316
scalar RSUExampleScenario.node[29].veinsmobility 	maxSpeed 	13.999940229147
scalar RSUExampleScenario.node[29].veinsmobility 	totalDistance 	3413.906947656
scalar RSUExampleScenario.node[29].veinsmobility 	totalCO2Emission 	693.81012010732
scalar RSUExampleScenario.node[30].veinsmobility 	startTime 	90.1
scalar RSUExampleScenario.node[30].veinsmobility 	totalTime 	274.5
scalar RSUExampleScenario.node[30].veinsmobility 	stopTime 	364.7
scalar RSUExampleScenario.node[30].veinsmobility 	minSpeed 	0.24721156954952
scalar RSUExampleScenario.node[30].veinsmobility 	maxSpeed 	13.999970692934
scalar RSUExampleScenario.node[30].veinsmobility 	totalDistance 	3409.6624380239
scalar RSUExampleScenario.node[30].veinsmobility 	totalCO2Emission 	695.66093122404
scalar RSUExampleScenario.node[31].veinsmobility 	startTime 	93.1
scalar RSUExampleScenario.node[31].veinsmobility 	totalTime 	275.1
scalar RSUExampleScenario.node[31].veinsmobility 	stopTime 	368.3
scalar RSUExampleScenario.node[31].veinsmobility 	minSpeed 	0.24837974769948
scalar RSUExampleScenario.node[31].veinsmobility 	maxSpeed 	13.999969219761
scalar RSUExampleScenario.node[31].veinsmobility 	totalDistance 	3413.5243108331
scalar RSUExampleScenario.node[31].veinsmobility 	totalCO2Emission 	696.42903374202
scalar RSUExampleScenario.node[32].veinsmobility 	startTime 	96.1
scalar RSUExampleScenario.node[32].veinsmobility 	totalTime 	275.7
scalar RSUExampleScenario.node[32].veinsmobility 	stopTime 	371.9
scalar RSUExampleScenario.node[32].veinsmobility 	minSpeed 	0.25755919015966
scalar RSUExampleScenario.node[32].veinsmobility 	maxSpeed 	13.999945528163
scalar RSUExampleScenario.node[32].veinsmobility 	totalDistance 	3410.04790343
scalar RSUExampleScenario.node[32].veinsmobility 	totalCO2Emission 	695.02621848346
scalar RSUExampleScenario.node[33].veinsmobility 	startTime 	99.1
scalar RSUExampleScenario.node[33].veinsmobility 	totalTime 	276.4
scalar RSUExampleScenario.node[33].veinsmobility 	stopTime 	375.6
scalar RSUExampleScenario.node[33].veinsmobility 	minSpeed 	0.25632708238997
scalar RSUExampleScenario.node[33].veinsmobility 	maxSpeed 	13.999959202118
scalar RSUExampleScenario.node[33].veinsmobility 	totalDistance 	3413.8343089583
scalar RSUExampleScenario.node[33].veinsmobility 	totalCO2Emission 	700.85109986686
scalar RSUExampleScenario.node[34].veinsmobility 	startTime 	102.1
scalar RSUExampleScenario.node[34].veinsmobility 	totalTime 	277
scalar RSUExampleScenario.node[34].veinsmobility 	stopTime 	379.2
scalar RSUExampleScenario.node[34].veinsmobility 	minSpeed 	0.25499814896891
scalar RSUExampleScenario.node[34].veinsmobility 	maxSpeed 	13.999857754854
scalar RSUExampleScenario.node[34].veinsmobility 	totalDistance 	3409.6555404834
scalar RSUExampleScenario.node[34].veinsmobility 	totalCO2Emission 	698.35857581697
scalar RSUExampleScenario.node[35].veinsmobility 	startTime 	105.1
scalar RSUExampleScenario.node[35].veinsmobility 	totalTime 	277.6
scalar RSUExampleScenario.node[35].veinsmobility 	stopTime 	382.8
scalar RSUExampleScenario.node[35].veinsmobility 	minSpeed 	0.25991392391408
scalar RSUExampleScenario.node[35].veinsmobility 	maxSpeed 	13.999985301413
scalar RSUExampleScenario.node[35].veinsmobility 	totalDistance 	3414.067956883
scalar RSUExampleScenario.node[35].veinsmobility 	totalCO2Emission 	701.39043810388
scalar RSUExampleScenario.node[36].veinsmobility 	startTime 	108.1
scalar RSUExampleScenario.node[36].veinsmobility 	totalTime 	278.3
scalar RSUExampleScenario.node[36].veinsmobility 	stopTime 	386.5
scalar RSUExampleScenario.node[36].veinsmobility 	minSpeed 	0.25690207131999
scalar RSUExampleScenario.node[36].veinsmobility 	maxSpeed 	13.999917600984
scalar RSUExampleScenario.node[36].veinsmobility 	totalDistance 	3409.6651873497
scalar RSUExampleScenario.node[36].veinsmobility 	totalCO2Emission 	698.4896299504
scalar RSUExampleScenario.node[37].veinsmobility 	startTime 	111.1
scalar RSUExampleScenario.node[37].veinsmobility 	totalTime 	279
scalar RSUExampleScenario.node[37].veinsmobility 	stopTime 	390.2
scalar RSUExampleScenario.node[37].veinsmobility 	minSpeed 	0.25130464839144
scalar RSUExampleScenario.node[37].veinsmobility 	maxSpeed 	13.999878480008
scalar RSUExampleScenario.node[37].veinsmobility 	totalDistance 	3413.9447851525
scalar RSUExampleScenario.node[37].veinsmobility 	totalCO2Emission 	701.85589734349
scalar RSUExampleScenario.node[38].veinsmobility 	startTime 	114.1
scalar RSUExampleScenario.node[38].veinsmobility 	totalTime 	279.8
scalar RSUExampleScenario.node[38].veinsmobility 	stopTime 	394
scalar RSUExampleScenario.node[38].veinsmobility 	minSpeed 	0.252249384569
scalar RSUExampleScenario.node[38].veinsmobility 	maxSpeed 	13.999954955641
scalar RSUExampleScenario.node[38].veinsmobility 	totalDistance 	3409.6325946975
scalar RSUExampleScenario.node[38].veinsmobility 	totalCO2Emission 	704.02367553918
scalar RSUExampleScenario.node[39].veinsmobility 	startTime 	117.1
scalar RSUExampleScenario.node[39].veinsmobility 	totalTime 	280.4
scalar RSUExampleScenario.node[39].veinsmobility 	stopTime 	397.6
scalar RSUExampleScenario.node[39].veinsmobility 	minSpeed 	0.24859028250771
scalar RSUExampleScenario.node[39].veinsmobility 	maxSpeed 	13.999948852737
scalar RSUExampleScenario.node[39].veinsmobility 	totalDistance 	3413.6649720283
scalar RSUExampleScenario.node[39].veinsmobility 	totalCO2Emission 	702.49936073775
scalar RSUExampleScenario.node[40].veinsmobility 	startTime 	120.1
scalar RSUExampleScenario.node[40].veinsmobility 	totalTime 	281.1
scalar RSUExampleScenario.node[40].veinsmobility 	stopTime 	401.3
scalar RSUExampleScenario.node[40].veinsmobility 	minSpeed 	0.25858813402592
scalar RSUExampleScenario.node[40].veinsmobility 	maxSpeed 	13.999999160548
scalar RSUExampleScenario.node[40].veinsmobility 	totalDistance 	3409.973752129
scalar RSUExampleScenario.node[40].veinsmobility 	totalCO2Emission 	705.07054735603
scalar RSUExampleScenario.node[41].veinsmobility 	startTime 	123.1
scalar RSUExampleScenario.node[41].veinsmobility 	totalTime 	281.7
scalar RSUExampleScenario.node[41].veinsmobility 	stopTime 	404.9
scalar RSUExampleScenario.node[41].veinsmobility 	minSpeed 	0.25240104803094
scalar RSUExampleScenario.node[41].veinsmobility 	maxSpeed 	13.999970232104
scalar RSUExampleScenario.node[41].veinsmobility 	totalDistance 	3413.8753871969
scalar RSUExampleScenario.node[41].veinsmobility 	totalCO2Emission 	706.02305569188
scalar RSUExampleScenario.node[42].veinsmobility 	startTime 	126.1
scalar RSUExampleScenario.node[42].veinsmobility 	totalTime 	282.4
scalar RSUExampleScenario.node[42].veinsmobility 	stopTime 	408.6
scalar RSUExampleScenario.node[42].veinsmobility 	minSpeed 	0.25270787094324
scalar RSUExampleScenario.node[42].veinsmobility 	maxSpeed 	13.99974438939
scalar RSUExampleScenario.node[42].veinsmobility 	totalDistance 	3409.8906845677
scalar RSUExampleScenario.node[42].veinsmobility 	totalCO2Emission 	702.33101799285
scalar RSUExampleScenario.node[43].veinsmobility 	startTime 	129.1
scalar RSUExampleScenario.node[43].veinsmobility 	totalTime 	283.1
scalar RSUExampleScenario.node[43].veinsmobility 	stopTime 	412.3
scalar RSUExampleScenario.node[43].veinsmobility 	minSpeed 	0.24828544556256
scalar RSUExampleScenario.node[43].veinsmobility 	maxSpeed 	13.999856939979
scalar RSUExampleScenario.node[43].veinsmobility 	totalDistance 	3414.19234501
scalar RSUExampleScenario.node[43].veinsmobility 	totalCO2Emission 	701.68622940348
scalar RSUExampleScenario.node[44].veinsmobility 	startTime 	132.1
scalar RSUExampleScenario.node[44].veinsmobility 	totalTime 	283.8
scalar RSUExampleScenario.node[44].veinsmobility 	stopTime 	416
scalar RSUExampleScenario.node[44].veinsmobility 	minSpeed 	0.2561744632225
scalar RSUExampleScenario.node[44].veinsmobility 	maxSpeed 	13.99991826812
scalar RSUExampleScenario.node[44].veinsmobility 	totalDistance 	3410.0086781237
scalar RSUExampleScenario.node[44].veinsmobility 	totalCO2Emission 	703.35701064333
scalar RSUExampleScenario.node[45].veinsmobility 	startTime 	135.1
scalar RSUExampleScenario.node[45].veinsmobility 	totalTime 	284.6
scalar RSUExampleScenario.node[45].veinsmobility 	stopTime 	419.8
scalar RSUExampleScenario.node[45].veinsmobility 	minSpeed 	0.25854343456426
scalar RSUExampleScenario.node[45].veinsmobility 	maxSpeed 	13.999737908863
scalar RSUExampleScenario.node[45].veinsmobility 	totalDistance 	3414.2800096938
scalar RSUExampleScenario.node[45].veinsmobility 	totalCO2Emission 	702.94330470016
scalar RSUExampleScenario.node[46].veinsmobility 	startTime 	138.1
scalar RSUExampleScenario.node[46].veinsmobility 	totalTime 	285.3
scalar RSUExampleScenario.node[46].veinsmobility 	stopTime 	423.5
scalar RSUExampleScenario.node[46].veinsmobility 	minSpeed 	0.25001932109194
scalar RSUExampleScenario.node[46].veinsmobility 	maxSpeed 	13.999981953895
scalar RSUExampleScenario.node[46].veinsmobility 	totalDistance 	3409.8048014896
scalar RSUExampleScenario.node[46].veinsmobility 	totalCO2Emission 	705.67048485206
scalar RSUExampleScenario.node[47].veinsmobility 	startTime 	141.1
scalar RSUExampleScenario.node[47].veinsmobility 	totalTime 	286.1
scalar RSUExampleScenario.node[47].veinsmobility 	stopTime 	427.3
scalar RSUExampleScenario.node[47].veinsmobility 	minSpeed 	0.24853883024678
scalar RSUExampleScenario.node[47].veinsmobility 	maxSpeed 	13.999991879282
scalar RSUExampleScenario.node[47].veinsmobility 	totalDistance 	3414.0895063603
scalar RSUExampleScenario.node[47].veinsmobility 	totalCO2Emission 	703.14515950303
scalar RSUExampleScenario.node[48].veinsmobility 	startTime 	144.1
scalar RSUExampleScenario.node[48].veinsmobility 	totalTime 	286.9
scalar RSUExampleScenario.node[48].veinsmobility 	stopTime 	431.1
scalar RSUExampleScenario.node[48].veinsmobility 	minSpeed 	0.25351621966506
scalar RSUExampleScenario.node[48].veinsmobility 	maxSpeed 	13.999978426918
scalar RSUExampleScenario.node[48].veinsmobility 	totalDistance 	3410.0716219916
scalar RSUExampleScenario.node[48].veinsmobility 	totalCO2Emission 	706.78499361461
scalar RSUExampleScenario.node[49].veinsmobility 	startTime 	147.1
scalar RSUExampleScenario.node[49].veinsmobility 	totalTime 	287.6
scalar RSUExampleScenario.node[49].veinsmobility 	stopTime 	434.8
scalar RSUExampleScenario.node[49].veinsmobility 	minSpeed 	0.24706657341006
scalar RSUExampleScenario.node[49].veinsmobility 	maxSpeed 	13.999883195579
scalar RSUExampleScenario.node[49].veinsmobility 	totalDistance 	3409.7193089406
scalar RSUExampleScenario.node[49].veinsmobility 	totalCO2Emission 	710.27465630474
scalar RSUExampleScenario.node[50].veinsmobility 	startTime 	150.1
scalar RSUExampleScenario.node[50].veinsmobility 	totalTime 	288.3
scalar RSUExampleScenario.node[50].veinsmobility 	stopTime 	438.5
scalar RSUExampleScenario.node[50].veinsmobility 	minSpeed 	0.249002092815
scalar RSUExampleScenario.node[50].veinsmobility 	maxSpeed 	13.999901253458
scalar RSUExampleScenario.node[50].veinsmobility 	totalDistance 	3413.7455115915
scalar RSUExampleScenario.node[50].veinsmobility 	totalCO2Emission 	709.01000069709
scalar RSUExampleScenario.node[51].veinsmobility 	startTime 	153.1
scalar RSUExampleScenario.node[51].veinsmobility 	totalTime 	289
scalar RSUExampleScenario.node[51].veinsmobility 	stopTime 	442.2
scalar RSUExampleScenario.node[51].veinsmobility 	minSpeed 	0.25365553873847
scalar RSUExampleScenario.node[51].veinsmobility 	maxSpeed 	13.99997222973
scalar RSUExampleScenario.node[51].veinsmobility 	totalDistance 	3409.9374023369
scalar RSUExampleScenario.node[51].veinsmobility 	totalCO2Emission 	710.92635994573
scalar RSUExampleScenario.node[52].veinsmobility 	startTime 	156.1
scalar RSUExampleScenario.node[52].veinsmobility 	totalTime 	289.7
scalar RSUExampleScenario.node[52].veinsmobility 	stopTime 	445.9
scalar RSUExampleScenario.node[52].veinsmobility 	minSpeed 	0.25825439538178
scalar RSUExampleScenario.node[52].veinsmobility 	maxSpeed 	13.999898111308
scalar RSUExampleScenario.node[52].veinsmobility 	totalDistance 	3413.5355015278
scalar RSUExampleScenario.node[52].veinsmobility 	totalCO2Emission 	710.77247376089
scalar RSUExampleScenario.node[53].veinsmobility 	startTime 	159.1
scalar RSUExampleScenario.node[53].veinsmobility 	totalTime 	290.4
scalar RSUExampleScenario.node[53].veinsmobility 	stopTime 	449.6
scalar RSUExampleScenario.node[53].veinsmobility 	minSpeed 	0.25041335036629
scalar RSUExampleScenario.node[53].veinsmobility 	maxSpeed 	13.999856109032
scalar RSUExampleScenario.node[53].veinsmobility 	totalDistance 	3409.9261629763
scalar RSUExampleScenario.node[53].veinsmobility 	totalCO2Emission 	710.80395640291
scalar RSUExampleScenario.node[54].veinsmobility 	startTime 	162.1
scalar RSUExampleScenario.node[54].veinsmobility 	totalTime 	291.1
scalar RSUExampleScenario.node[54].veinsmobility 	stopTime 	453.3
scalar RSUExampleScenario.node[54].veinsmobility 	minSpeed 	0.25118661568314
scalar RSUExampleScenario.node[54].veinsmobility 	maxSpeed 	13.999929401684
scalar RSUExampleScenario.node[54].veinsmobility 	totalDistance 	3413.9754460786
scalar RSUExampleScenario.node[54].veinsmobility 	totalCO2Emission 	712.61794488549
scalar RSUExampleScenario.node[55].veinsmobility 	startTime 	165.1
scalar RSUExampleScenario.node[55].veinsmobility 	totalTime 	291.8
scalar RSUExampleScenario.node[55].veinsmobility 	stopTime 	457
scalar RSUExampleScenario.node[55].veinsmobility 	minSpeed 	0.25552034737845
scalar RSUExampleScenario.node[55].veinsmobility 	maxSpeed 	13.999882364147
scalar RSUExampleScenario.node[55].veinsmobility 	totalDistance 	3410.1148209103
scalar RSUExampleScenario.node[55].veinsmobility 	totalCO2Emission 	713.13927830634
scalar RSUExampleScenario.node[56].veinsmobility 	startTime 	168.1
scalar RSUExampleScenario.node[56].veinsmobility 	totalTime 	292.6
scalar RSUExampleScenario.node[56].veinsmobility 	stopTime 	460.8
scalar RSUExampleScenario.node[56].veinsmobility 	minSpeed 	0.25835939378222
scalar RSUExampleScenario.node[56].veinsmobility 	maxSpeed 	13.999762426717
scalar RSUExampleScenario.node[56].veinsmobility 	totalDistance 	3414.0471192979
scalar RSUExampleScenario.node[56].veinsmobility 	totalCO2Emission 	711.63843458008
scalar RSUExampleScenario.node[57].veinsmobility 	startTime 	171.1
scalar RSUExampleScenario.node[57].veinsmobility 	totalTime 	293.3
scalar RSUExampleScenario.node[57].veinsmobility 	stopTime 	464.5
scalar RSUExampleScenario.node[57].veinsmobility 	minSpeed 	0.25431300572958
scalar RSUExampleScenario.node[57].veinsmobility 	maxSpeed 	13.999851977574
scalar RSUExampleScenario.node[57].veinsmobility 	totalDistance 	3409.6937204433
scalar RSUExampleScenario.node[57].veinsmobility 	totalCO2Emission 	713.60833072253
scalar RSUExampleScenario.node[58].veinsmobility 	startTime 	174.1
scalar RSUExampleScenario.node[58].veinsmobility 	totalTime 	293.9
scalar RSUExampleScenario.node[58].veinsmobility 	stopTime 	468.1
scalar RSUExampleScenario.node[58].veinsmobility 	minSpeed 	0.24758532820386
scalar RSUExampleScenario.node[58].veinsmobility 	maxSpeed 	13.999972342297
scalar RSUExampleScenario.node[58].veinsmobility 	totalDistance 	3413.6499494865
scalar RSUExampleScenario.node[58].veinsmobility 	totalCO2Emission 	715.74087821693
scalar RSUExampleScenario.node[59].veinsmobility 	startTime 	177.1
scalar RSUExampleScenario.node[59].veinsmobility 	totalTime 	294.5
scalar RSUExampleScenario.node[59].veinsmobility 	stopTime 	471.7
scalar RSUExampleScenario.node[59].veinsmobility 	minSpeed 	0.25670500220801
scalar RSUExampleScenario.node[59].veinsmobility 	maxSpeed 	13.999990282191
scalar RSUExampleScenario.node[59].veinsmobility 	totalDistance 	3409.595500028
scalar RSUExampleScenario.node[59].veinsmobility 	totalCO2Emission 	715.46058052304
scalar RSUExampleScenario.node[60].veinsmobility 	startTime 	180.1
scalar RSUExampleScenario.node[60].veinsmobility 	totalTime 	295.2
scalar RSUExampleScenario.node[60].veinsmobility 	stopTime 	475.4
scalar RSUExampleScenario.node[60].veinsmobility 	minSpeed 	0.25829757512128
scalar RSUExampleScenario.node[60].veinsmobility 	maxSpeed 	13.999958885696
scalar RSUExampleScenario.node[60].veinsmobility 	totalDistance 	3414.2272870266
scalar RSUExampleScenario.node[60].veinsmobility 	totalCO2Emission 	720.38784287927
scalar RSUExampleScenario.node[61].veinsmobility 	startTime 	183.1
scalar RSUExampleScenario.node[61].veinsmobility 	totalTime 	295.9
scalar RSUExampleScenario.node[61].veinsmobility 	stopTime 	479.1
scalar RSUExampleScenario.node[61].veinsmobility 	minSpeed 	0.25167578994273
scalar RSUExampleScenario.node[61].veinsmobility 	maxSpeed 	13.999976136026
scalar RSUExampleScenario.node[61].veinsmobility 	totalDistance 	3409.5011162559
scalar RSUExampleScenario.node[61].veinsmobility 	totalCO2Emission 	715.66174518597
scalar RSUExampleScenario.node[62].veinsmobility 	startTime 	186.1
scalar RSUExampleScenario.node[62].veinsmobility 	totalTime 	296.6
scalar RSUExampleScenario.node[62].veinsmobility 	stopTime 	482.8
scalar RSUExampleScenario.node[62].veinsmobility 	minSpeed 	0.25118617783557
scalar RSUExampleScenario.node[62].veinsmobility 	maxSpeed 	13.999895996726
scalar RSUExampleScenario.node[62].veinsmobility 	totalDistance 	3414.2403171984
scalar RSUExampleScenario.node[62].veinsmobility 	totalCO2Emission 	719.43122032622
scalar RSUExampleScenario.node[63].veinsmobility 	startTime 	189.1
scalar RSUExampleScenario.node[63].veinsmobility 	totalTime 	297.3
scalar RSUExampleScenario.node[63].veinsmobility 	stopTime 	486.5
scalar RSUExampleScenario.node[63].veinsmobility 	minSpeed 	0.25845259497873
scalar RSUExampleScenario.node[63].veinsmobility 	maxSpeed 	13.999975413347
scalar RSUExampleScenario.node[63].veinsmobility 	totalDistance 	3410.0742254032
scalar RSUExampleScenario.node[63].veinsmobility 	totalCO2Emission 	718.72005443764
scalar RSUExampleScenario.node[64].veinsmobility 	startTime 	192.1
scalar RSUExampleScenario.node[64].veinsmobility 	totalTime 	297.9
scalar RSUExampleScenario.node[64].veinsmobility 	stopTime 	490.1
scalar RSUExampleScenario.node[64].veinsmobility 	minSpeed 	0.25453885852569
scalar RSUExampleScenario.node[64].veinsmobility 	maxSpeed 	13.999837719689
scalar RSUExampleScenario.node[64].veinsmobility 	totalDistance 	3413.4546831507
scalar RSUExampleScenario.node[64].veinsmobility 	totalCO2Emission 	715.88863860951
scalar RSUExampleScenario.node[65].veinsmobility 	startTime 	195.1
scalar RSUExampleScenario.node[65].veinsmobility 	totalTime 	298.6
scalar RSUExampleScenario.node[65].veinsmobility 	stopTime 	493.8
scalar RSUExampleScenario.node[65].veinsmobility 	minSpeed 	0.25112904873863
scalar RSUExampleScenario.node[65].veinsmobility 	maxSpeed 	13.999894525672
scalar RSUExampleScenario.node[65].veinsmobility 	totalDistance 	3409.8077300999
scalar RSUExampleScenario.node[65].veinsmobility 	totalCO2Emission 	718.44639277973
scalar RSUExampleScenario.node[66].veinsmobility 	startTime 	198.1
scalar RSUExampleScenario.node[66].veinsmobility 	totalTime 	299.2
scalar RSUExampleScenario.node[66].veinsmobility 	stopTime 	497.4
scalar RSUExampleScenario.node[66].veinsmobility 	minSpeed 	0.25018196943775
scalar RSUExampleScenario.node[66].veinsmobility 	maxSpeed 	13.999826189463
scalar RSUExampleScenario.node[66].veinsmobility 	totalDistance 	3413.6724631381
scalar RSUExampleScenario.node[66].veinsmobility 	totalCO2Emission 	722.42131359039
scalar RSUExampleScenario.node[67].veinsmobility 	startTime 	201.1
scalar RSUExampleScenario.node[67].veinsmobility 	totalTime 	299.9
scalar RSUExampleScenario.node[67].veinsmobility 	stopTime 	501.1
scalar RSUExampleScenario.node[67].veinsmobility 	minSpeed 	0.2597302466929
scalar RSUExampleScenario.node[67].veinsmobility 	maxSpeed 	13.999981709844
scalar RSUExampleScenario.node[67].veinsmobility 	totalDistance 	3409.6937155501
scalar RSUExampleScenario.node[67].veinsmobility 	totalCO2Emission 	721.68493730174
scalar RSUExampleScenario.node[68].veinsmobility 	startTime 	204.1
scalar RSUExampleScenario.node[68].veinsmobility 	totalTime 	300.6
scalar RSUExampleScenario.node[68].veinsmobility 	stopTime 	504.8
scalar RSUExampleScenario.node[68].veinsmobility 	minSpeed 	0.25725304277427
scalar RSUExampleScenario.node[68].veinsmobility 	maxSpeed 	13.999978369863
scalar RSUExampleScenario.node[68].veinsmobility 	totalDistance 	3413.8106039894
scalar RSUExampleScenario.node[68].veinsmobility 	totalCO2Emission 	722.45607787613
scalar RSUExampleScenario.node[69].veinsmobility 	startTime 	207.1
scalar RSUExampleScenario.node[69].veinsmobility 	totalTime 	301.3
scalar RSUExampleScenario.node[69].veinsmobility 	stopTime 	508.5
scalar RSUExampleScenario.node[69].veinsmobility 	minSpeed 	0.259041798444
scalar RSUExampleScenario.node[69].veinsmobility 	maxSpeed 	13.999940469202
scalar RSUExampleScenario.node[69].veinsmobility 	totalDistance 	3409.6720014851
scalar RSUExampleScenario.node[69].veinsmobility 	totalCO2Emission 	726.49879242283
scalar RSUExampleScenario.node[70].veinsmobility 	startTime 	210.1
scalar RSUExampleScenario.node[70].veinsmobility 	totalTime 	302
scalar RSUExampleScenario.node[70].veinsmobility 	stopTime 	512.2
scalar RSUExampleScenario.node[70].veinsmobility 	minSpeed 	0.25644286720408
scalar RSUExampleScenario.node[70].veinsmobility 	maxSpeed 	13.999921303848
scalar RSUExampleScenario.node[70].veinsmobility 	totalDistance 	3413.930066781
scalar RSUExampleScenario.node[70].veinsmobility 	totalCO2Emission 	723.60394415871
scalar RSUExampleScenario.node[71].veinsmobility 	startTime 	213.1
scalar RSUExampleScenario.node[71].veinsmobility 	totalTime 	302.6
scalar RSUExampleScenario.node[71].veinsmobility 	stopTime 	515.8
scalar RSUExampleScenario.node[71].veinsmobility 	minSpeed 	0.24788927238574
scalar RSUExampleScenario.node[71].veinsmobility 	maxSpeed 	13.999975374029
scalar RSUExampleScenario.node[71].veinsmobility 	totalDistance 	3409.3951498847
scalar RSUExampleScenario.node[71].veinsmobility 	totalCO2Emission 	719.76575933503
scalar RSUExampleScenario.node[72].veinsmobility 	startTime 	216.1
scalar RSUExampleScenario.node[72].veinsmobility 	totalTime 	303.3
scalar RSUExampleScenario.node[72].veinsmobility 	stopTime 	519.5
scalar RSUExampleScenario.node[72].veinsmobility 	minSpeed 	0.25465545503632
scalar RSUExampleScenario.node[72].veinsmobility 	maxSpeed 	13.999969433786
scalar RSUExampleScenario.node[72].veinsmobility 	totalDistance 	3413.9884939976
scalar RSUExampleScenario.node[72].veinsmobility 	totalCO2Emission 	723.52611068113
scalar RSUExampleScenario.node[73].veinsmobility 	startTime 	219.1
scalar RSUExampleScenario.node[73].veinsmobility 	totalTime 	304
scalar RSUExampleScenario.node[73].veinsmobility 	stopTime 	523.2
scalar RSUExampleScenario.node[73].veinsmobility 	minSpeed 	0.24748890833114
scalar RSUExampleScenario.node[73].veinsmobility 	maxSpeed 	13.999993439808
scalar RSUExampleScenario.node[73].veinsmobility 	totalDistance 	3409.9368738144
scalar RSUExampleScenario.node[73].veinsmobility 	totalCO2Emission 	728.78732428747
scalar RSUExampleScenario.node[74].veinsmobility 	startTime 	222.1
scalar RSUExampleScenario.node[74].veinsmobility 	totalTime 	304.6
scalar RSUExampleScenario.node[74].veinsmobility 	stopTime 	526.8
scalar RSUExampleScenario.node[74].veinsmobility 	minSpeed 	0.25610953198071
scalar RSUExampleScenario.node[74].veinsmobility 	maxSpeed 	13.999917960053
scalar RSUExampleScenario.node[74].veinsmobility 	totalDistance 	3413.6099298983
scalar RSUExampleScenario.node[74].veinsmobility 	totalCO2Emission 	726.75141107345
scalar RSUExampleScenario.node[75].veinsmobility 	startTime 	225.1
scalar RSUExampleScenario.node[75].veinsmobility 	totalTime 	305.2
scalar RSUExampleScenario.node[75].veinsmobility 	stopTime 	530.4
scalar RSUExampleScenario.node[75].veinsmobility 	minSpeed 	0.2580778050276
scalar RSUExampleScenario.node[75].veinsmobility 	maxSpeed 	13.999988742399
scalar RSUExampleScenario.node[75].veinsmobility 	totalDistance 	3409.4869374806
scalar RSUExampleScenario.node[75].veinsmobility 	totalCO2Emission 	724.45890024688
scalar RSUExampleScenario.node[76].veinsmobility 	startTime 	228.1
scalar RSUExampleScenario.node[76].veinsmobility 	totalTime 	305.8
scalar RSUExampleScenario.node[76].veinsmobility 	stopTime 	534
scalar RSUExampleScenario.node[76].veinsmobility 	minSpeed 	0.25076007881528
scalar RSUExampleScenario.node[76].veinsmobility 	maxSpeed 	13.999921276909
scalar RSUExampleScenario.node[76].veinsmobility 	totalDistance 	3413.825534314
scalar RSUExampleScenario.node[76].veinsmobility 	totalCO2Emission 	727.73811308396
scalar RSUExampleScenario.node[77].veinsmobility 	startTime 	231.1
scalar RSUExampleScenario.node[77].veinsmobility 	totalTime 	306.4
scalar RSUExampleScenario.node[77].veinsmobility 	stopTime 	537.6
scalar RSUExampleScenario.node[77].veinsmobility 	minSpeed 	0.25248996048421
scalar RSUExampleScenario.node[77].veinsmobility 	maxSpeed 	13.99985321284
scalar RSUExampleScenario.node[77].veinsmobility 	totalDistance 	3409.5867299396
scalar RSUExampleScenario.node[77].veinsmobility 	totalCO2Emission 	729.20649927926
scalar RSUExampleScenario.node[78].veinsmobility 	startTime 	234.1
scalar RSUExampleScenario.node[78].veinsmobility 	totalTime 	307.1
scalar RSUExampleScenario.node[78].veinsmobility 	stopTime 	541.3
scalar RSUExampleScenario.node[78].veinsmobility 	minSpeed 	0.24763937324448
scalar RSUExampleScenario.node[78].veinsmobility 	maxSpeed 	13.999961586115
scalar RSUExampleScenario.node[78].veinsmobility 	totalDistance 	3414.2461382648
scalar RSUExampleScenario.node[78].veinsmobility 	totalCO2Emission 	725.21194489426
scalar RSUExampleScenario.node[79].veinsmobility 	startTime 	237.1
scalar RSUExampleScenario.node[79].veinsmobility 	totalTime 	307.8
scalar RSUExampleScenario.node[79].veinsmobility 	stopTime 	545
scalar RSUExampleScenario.node[79].veinsmobility 	minSpeed 	0.24769076995156
scalar RSUExampleScenario.node[79].veinsmobility 	maxSpeed 	13.999905396267
scalar RSUExampleScenario.node[79].veinsmobility 	totalDistance 	3409.734145455
scalar RSUExampleScenario.node[79].veinsmobility 	totalCO2Emission 	729.73664072003
scalar RSUExampleScenario.node[80].veinsmobility 	startTime 	240.1
scalar RSUExampleScenario.node[80].veinsmobility 	totalTime 	308.5
scalar RSUExampleScenario.node[80].veinsmobility 	stopTime 	548.7
scalar RSUExampleScenario.node[80].veinsmobility 	minSpeed 	0.2545339431928
scalar RSUExampleScenario.node[80].veinsmobility 	maxSpeed 	13.999989702741
scalar RSUExampleScenario.node[80].veinsmobility 	totalDistance 	3413.8819788249
scalar RSUExampleScenario.node[80].veinsmobility 	totalCO2Emission 	727.12036859864
scalar RSUExampleScenario.node[81].veinsmobility 	startTime 	243.1
scalar RSUExampleScenario.node[81].veinsmobility 	totalTime 	309.2
scalar RSUExampleScenario.node[81].veinsmobility 	stopTime 	552.4
scalar RSUExampleScenario.node[81].veinsmobility 	minSpeed 	0.24738912421139
scalar RSUExampleScenario.node[81].veinsmobility 	maxSpeed 	13.999995187542
scalar RSUExampleScenario.node[81].veinsmobility 	totalDistance 	3410.0982505701
scalar RSUExampleScenario.node[81].veinsmobility 	totalCO2Emission 	730.28535509949
scalar RSUExampleScenario.node[82].veinsmobility 	startTime 	246.1
scalar RSUExampleScenario.node[82].veinsmobility 	totalTime 	309.9
scalar RSUExampleScenario.node[82].veinsmobility 	stopTime 	556.1
scalar RSUExampleScenario.node[82].veinsmobility 	minSpeed 	0.24718625717028
scalar RSUExampleScenario.node[82].veinsmobility 	maxSpeed 	13.999960480274
scalar RSUExampleScenario.node[82].veinsmobility 	totalDistance 	3413.9239027379
scalar RSUExampleScenario.node[82].veinsmobility 	totalCO2Emission 	729.01261157688
scalar RSUExampleScenario.node[83].veinsmobility 	startTime 	249.1
scalar RSUExampleScenario.node[83].veinsmobility 	totalTime 	310.6
scalar RSUExampleScenario.node[83].veinsmobility 	stopTime 	559.8
scalar RSUExampleScenario.node[83].veinsmobility 	minSpeed 	0.25222118944884
scalar RSUExampleScenario.node[83].veinsmobility 	maxSpeed 	13.99999321074
scalar RSUExampleScenario.node[83].veinsmobility 	totalDistance 	3410.1674631804
scalar RSUExampleScenario.node[83].veinsmobility 	totalCO2Emission 	731.43472901031
scalar RSUExampleScenario.node[84].veinsmobility 	startTime 	252.1
scalar RSUExampleScenario.node[84].veinsmobility 	totalTime 	311.3
scalar RSUExampleScenario.node[84].veinsmobility 	stopTime 	563.5
scalar RSUExampleScenario.node[84].veinsmobility 	minSpeed 	0.25044168614782
scalar RSUExampleScenario.node[84].veinsmobility 	maxSpeed 	13.999946419706
scalar RSUExampleScenario.node[84].veinsmobility 	totalDistance 	3413.6805052535
scalar RSUExampleScenario.node[84].veinsmobility 	totalCO2Emission 	730.71457422457
scalar RSUExampleScenario.node[85].veinsmobility 	startTime 	255.1
scalar RSUExampleScenario.node[85].veinsmobility 	totalTime 	312
scalar RSUExampleScenario.node[85].veinsmobility 	stopTime 	567.2
scalar RSUExampleScenario.node[85].veinsmobility 	minSpeed 	0.25759188237879
scalar RSUExampleScenario.node[85].veinsmobility 	maxSpeed 	13.999874383388
scalar RSUExampleScenario.node[85].veinsmobility 	totalDistance 	3409.5331200319
scalar RSUExampleScenario.node[85].veinsmobility 	totalCO2Emission 	736.9048360831
scalar RSUExampleScenario.node[86].veinsmobility 	startTime 	258.1
scalar RSUExampleScenario.node[86].veinsmobility 	totalTime 	312.7
scalar RSUExampleScenario.node[86].veinsmobility 	stopTime 	570.9
scalar RSUExampleScenario.node[86].veinsmobility 	minSpeed 	0.25412516162707
scalar RSUExampleScenario.node[86].veinsmobility 	maxSpeed 	13.999994155888
scalar RSUExampleScenario.node[86].veinsmobility 	totalDistance 	3414.099206287
scalar RSUExampleScenario.node[86].veinsmobility 	totalCO2Emission 	731.27055527451
scalar RSUExampleScenario.node[87].veinsmobility 	startTime 	261.1
scalar RSUExampleScenario.node[87].veinsmobility 	totalTime 	313.4
scalar RSUExampleScenario.node[87].veinsmobility 	stopTime 	574.6
scalar RSUExampleScenario.node[87].veinsmobility 	minSpeed 	0.24761520121153
scalar RSUExampleScenario.node[87].veinsmobility 	maxSpeed 	13.999827553278
scalar RSUExampleScenario.node[87].veinsmobility 	totalDistance 	3409.8590036131
scalar RSUExampleScenario.node[87].veinsmobility 	totalCO2Emission 	735.60655042825
scalar RSUExampleScenario.node[88].veinsmobility 	startTime 	264.1
scalar RSUExampleScenario.node[88].veinsmobility 	totalTime 	314
scalar RSUExampleScenario.node[88].veinsmobility 	stopTime 	578.2
scalar RSUExampleScenario.node[88].veinsmobility 	minSpeed 	0.25471765018255
scalar RSUExampleScenario.node[88].veinsmobility 	maxSpeed 	13.999975952602
scalar RSUExampleScenario.node[88].veinsmobility 	totalDistance 	3413.7626323503
scalar RSUExampleScenario.node[88].veinsmobility 	totalCO2Emission 	730.13687625957
scalar RSUExampleScenario.node[89].veinsmobility 	startTime 	267.1
scalar RSUExampleScenario.node[89].veinsmobility 	totalTime 	314.6
scalar RSUExampleScenario.node[89].veinsmobility 	stopTime 	581.8
scalar RSUExampleScenario.node[89].veinsmobility 	minSpeed 	0.25345311022294
scalar RSUExampleScenario.node[89].veinsmobility 	maxSpeed 	13.999965112093
scalar RSUExampleScenario.node[89].veinsmobility 	totalDistance 	3409.6618040592
scalar RSUExampleScenario.node[89].veinsmobility 	totalCO2Emission 	731.30836987944
scalar RSUExampleScenario.node[90].veinsmobility 	startTime 	270.1
scalar RSUExampleScenario.node[90].veinsmobility 	totalTime 	315.3
scalar RSUExampleScenario.node[90].veinsmobility 	stopTime 	585.5
scalar RSUExampleScenario.node[90].veinsmobility 	minSpeed 	0.25983089727
scalar RSUExampleScenario.node[90].veinsmobility 	maxSpeed 	13.999939924469
scalar RSUExampleScenario.node[90].veinsmobility 	totalDistance 	3413.8854756185
scalar RSUExampleScenario.node[90].veinsmobility 	totalCO2Emission 	731.65735359919
scalar RSUExampleScenario.node[91].veinsmobility 	startTime 	273.1
scalar RSUExampleScenario.node[91].veinsmobility 	totalTime 	316
scalar RSUExampleScenario.node[91].veinsmobility 	stopTime 	589.2
scalar RSUExampleScenario.node[91].veinsmobility 	minSpeed 	0.25673920340417
scalar RSUExampleScenario.node[91].veinsmobility 	maxSpeed 	13.999835484035
scalar RSUExampleScenario.node[91].veinsmobility 	totalDistance 	3409.5214082654
scalar RSUExampleScenario.node[91].veinsmobility 	totalCO2Emission 	735.95497298051
scalar RSUExampleScenario.node[92].veinsmobility 	startTime 	276.1
scalar RSUExampleScenario.node[92].veinsmobility 	totalTime 	316.7
scalar RSUExampleScenario.node[92].veinsmobility 	stopTime 	592.9
scalar RSUExampleScenario.node[92].veinsmobility 	minSpeed 	0.25312816115608
scalar RSUExampleScenario.node[92].veinsmobility 	maxSpeed 	13.999618995944
scalar RSUExampleScenario.node[92].veinsmobility 	totalDistance 	3413.8610027378
scalar RSUExampleScenario.node[92].veinsmobility 	totalCO2Emission 	739.48097147101
scalar RSUExampleScenario.node[93].veinsmobility 	startTime 	279.1
scalar RSUExampleScenario.node[93].veinsmobility 	totalTime 	317.4
scalar RSUExampleScenario.node[93].veinsmobility 	stopTime 	596.6
scalar RSUExampleScenario.node[93].veinsmobility 	minSpeed 	0.2550639546013
scalar RSUExampleScenario.node[93].veinsmobility 	maxSpeed 	13.999997159501
scalar RSUExampleScenario.node[93].veinsmobility 	totalDistance 	3409.7282452661
scalar RSUExampleScenario.node[93].veinsmobility 	totalCO2Emission 	739.81005510809
scalar RSUExampleScenario.node[94].veinsmobility 	startTime 	282.1
scalar RSUExampleScenario.node[94].veinsmobility 	totalTime 	318.1
scalar RSUExampleScenario.node[94].veinsmobility 	stopTime 	600.3
scalar RSUExampleScenario.node[94].veinsmobility 	minSpeed 	0.25896617010934
scalar RSUExampleScenario.node[94].veinsmobility 	maxSpeed 	13.999965822392
scalar RSUExampleScenario.node[94].veinsmobility 	totalDistance 	3413.7799707084
scalar RSUExampleScenario.node[94].veinsmobility 	totalCO2Emission 	737.9795474769
scalar RSUExampleScenario.node[95].veinsmobility 	startTime 	285.1
scalar RSUExampleScenario.node[95].veinsmobility 	totalTime 	318.8
scalar RSUExampleScenario.node[95].veinsmobility 	stopTime 	604
scalar RSUExampleScenario.node[95].veinsmobility 	minSpeed 	0.25133335482259
scalar RSUExampleScenario.node[95].veinsmobility 	maxSpeed 	13.999886611714
scalar RSUExampleScenario.node[95].veinsmobility 	totalDistance 	3409.6650774389
scalar RSUExampleScenario.node[95].veinsmobility 	totalCO2Emission 	739.59542950095
scalar RSUExampleScenario.node[96].veinsmobility 	startTime 	288.1
scalar RSUExampleScenario.node[96].veinsmobility 	totalTime 	319.4
scalar RSUExampleScenario.node[96].veinsmobility 	stopTime 	607.6
scalar RSUExampleScenario.node[96].veinsmobility 	minSpeed 	0.2561271348442
scalar RSUExampleScenario.node[96].veinsmobility 	maxSpeed 	13.999972103422
scalar RSUExampleScenario.node[96].veinsmobility 	totalDistance 	3413.8317180073
scalar RSUExampleScenario.node[96].veinsmobility 	totalCO2Emission 	741.19310806331
scalar RSUExampleScenario.node[97].veinsmobility 	startTime 	291.1
scalar RSUExampleScenario.node[97].veinsmobility 	totalTime 	320.1
scalar RSUExampleScenario.node[97].veinsmobility 	stopTime 	611.3
scalar RSUExampleScenario.node[97].veinsmobility 	minSpeed 	0.24741505123954
scalar RSUExampleScenario.node[97].veinsmobility 	maxSpeed 	13.999951379206
scalar RSUExampleScenario.node[97].veinsmobility 	totalDistance 	3409.7297441845
scalar RSUExampleScenario.node[97].veinsmobility 	totalCO2Emission 	742.99104042695
scalar RSUExampleScenario.node[98].veinsmobility 	startTime 	294.1
scalar RSUExampleScenario.node[98].veinsmobility 	totalTime 	320.8
scalar RSUExampleScenario.node[98].veinsmobility 	stopTime 	615
scalar RSUExampleScenario.node[98].veinsmobility 	minSpeed 	0.25705289102858
scalar RSUExampleScenario.node[98].veinsmobility 	maxSpeed 	13.999885949329
scalar RSUExampleScenario.node[98].veinsmobility 	totalDistance 	3413.982599768
scalar RSUExampleScenario.node[98].veinsmobility 	totalCO2Emission 	743.23173595854
scalar RSUExampleScenario.node[99].veinsmobility 	startTime 	297.1
scalar RSUExampleScenario.node[99].veinsmobility 	totalTime 	321.4
scalar RSUExampleScenario.node[99].veinsmobility 	stopTime 	618.6
scalar RSUExampleScenario.node[99].veinsmobility 	minSpeed 	0.25629406515625
scalar RSUExampleScenario.node[99].veinsmobility 	maxSpeed 	13.999920268774
scalar RSUExampleScenario.node[99].veinsmobility 	totalDistance 	3409.6715412416
scalar RSUExampleScenario.node[99].veinsmobility 	totalCO2Emission 	746.54532642046
scalar RSUExampleScenario.node[100].veinsmobility 	startTime 	300.1
scalar RSUExampleScenario.node[100].veinsmobility 	totalTime 	322
scalar RSUExampleScenario.node[100].veinsmobility 	stopTime 	622.2
scalar RSUExampleScenario.node[100].veinsmobility 	minSpeed 	0.24861852527875
scalar RSUExampleScenario.node[100].veinsmobility 	maxSpeed 	13.999874684161
scalar RSUExampleScenario.node[100].veinsmobility 	totalDistance 	3413.6268089368
scalar RSUExampleScenario.node[100].veinsmobility 	totalCO2Emission 	741.49127937849
scalar RSUExampleScenario.node[101].veinsmobility 	startTime 	303.1
scalar RSUExampleScenario.node[101].veinsmobility 	totalTime 	322.7
scalar RSUExampleScenario.node[101].veinsmobility 	stopTime 	625.9
scalar RSUExampleScenario.node[101].veinsmobility 	minSpeed 	0.25757533382182
scalar RSUExampleScenario.node[101].veinsmobility 	maxSpeed 	13.999960979272
scalar RSUExampleScenario.node[101].veinsmobility 	totalDistance 	3410.161799858
scalar RSUExampleScenario.node[101].veinsmobility 	totalCO2Emission 	744.18434605803
scalar RSUExampleScenario.node[102].veinsmobility 	startTime 	306.1
scalar RSUExampleScenario.node[102].veinsmobility 	totalTime 	323.4
scalar RSUExampleScenario.node[102].veinsmobility 	stopTime 	629.6
scalar RSUExampleScenario.node[102].veinsmobility 	minSpeed 	0.25191940242075
scalar RSUExampleScenario.node[102].veinsmobility 	maxSpeed 	13.999987252669
scalar RSUExampleScenario.node[102].veinsmobility 	totalDistance 	3414.0185176508
scalar RSUExampleScenario.node[102].veinsmobility 	totalCO2Emission 	743.23524893557
scalar RSUExampleScenario.node[103].veinsmobility 	startTime 	309.1
scalar RSUExampleScenario.node[103].veinsmobility 	totalTime 	324.1
scalar RSUExampleScenario.node[103].veinsmobility 	stopTime 	633.3
scalar RSUExampleScenario.node[103].veinsmobility 	minSpeed 	0.2501649257692
scalar RSUExampleScenario.node[103].veinsmobility 	maxSpeed 	13.999911166434
scalar RSUExampleScenario.node[103].veinsmobility 	totalDistance 	3409.9585329376
scalar RSUExampleScenario.node[103].veinsmobility 	totalCO2Emission 	745.87329368502
scalar RSUExampleScenario.node[104].veinsmobility 	startTime 	312.1
scalar RSUExampleScenario.node[104].veinsmobility 	totalTime 	324.8
scalar RSUExampleScenario.node[104].veinsmobility 	stopTime 	637
scalar RSUExampleScenario.node[104].veinsmobility 	minSpeed 	0.25999225548236
scalar RSUExampleScenario.node[104].veinsmobility 	maxSpeed 	13.999985000216
scalar RSUExampleScenario.node[104].veinsmobility 	totalDistance 	3414.1509383786
scalar RSUExampleScenario.node[104].veinsmobility 	totalCO2Emission 	744.61239685252
scalar RSUExampleScenario.node[105].veinsmobility 	startTime 	315.1
scalar RSUExampleScenario.node[105].veinsmobility 	totalTime 	325.5
scalar RSUExampleScenario.node[105].veinsmobility 	stopTime 	640.7
scalar RSUExampleScenario.node[105].veinsmobility 	minSpeed 	0.25884753569169
scalar RSUExampleScenario.node[105].veinsmobility 	maxSpeed 	13.999832803623
scalar RSUExampleScenario.node[105].veinsmobility 	totalDistance 	3410.0819430657
scalar RSUExampleScenario.node[105].veinsmobility 	totalCO2Emission 	749.79480204369
scalar RSUExampleScenario.node[106].veinsmobility 	startTime 	318.1
scalar RSUExampleScenario.node[106].veinsmobility 	totalTime 	326.2
scalar RSUExampleScenario.node[106].veinsmobility 	stopTime 	644.4
scalar RSUExampleScenario.node[106].veinsmobility 	minSpeed 	0.24770289740944
scalar RSUExampleScenario.node[106].veinsmobility 	maxSpeed 	13.999848993181
scalar RSUExampleScenario.node[106].veinsmobility 	totalDistance 	3414.0050799018
scalar RSUExampleScenario.node[106].veinsmobility 	totalCO2Emission 	748.28953955119
scalar RSUExampleScenario.node[107].veinsmobility 	startTime 	321.1
scalar RSUExampleScenario.node[107].veinsmobility 	totalTime 	327
scalar RSUExampleScenario.node[107].veinsmobility 	stopTime 	648.2
scalar RSUExampleScenario.node[107].veinsmobility 	minSpeed 	0.24759470110876
scalar RSUExampleScenario.node[107].veinsmobility 	maxSpeed 	13.999957388309
scalar RSUExampleScenario.node[107].veinsmobility 	totalDistance 	3410.0919761613
scalar RSUExampleScenario.node[107].veinsmobility 	totalCO2Emission 	746.96021963131
scalar RSUExampleScenario.node[108].veinsmobility 	startTime 	324.1
scalar RSUExampleScenario.node[108].veinsmobility 	totalTime 	327.7
scalar RSUExampleScenario.node[108].veinsmobility 	stopTime 	651.9
scalar RSUExampleScenario.node[108].veinsmobility 	minSpeed 	0.25808000421454
scalar RSUExampleScenario.node[108].veinsmobility 	maxSpeed 	13.999996538251
scalar RSUExampleScenario.node[108].veinsmobility 	totalDistance 	3413.8767812411
scalar RSUExampleScenario.node[108].veinsmobility 	totalCO2Emission 	747.78189338972
scalar RSUExampleScenario.node[109].veinsmobility 	startTime 	327.1
scalar RSUExampleScenario.node[109].veinsmobility 	totalTime 	328.4
scalar RSUExampleScenario.node[109].veinsmobility 	stopTime 	655.6
scalar RSUExampleScenario.node[109].veinsmobility 	minSpeed 	0.25946528169909
scalar RSUExampleScenario.node[109].veinsmobility 	maxSpeed 	13.999907965353
scalar RSUExampleScenario.node[109].veinsmobility 	totalDistance 	3409.9162331118
scalar RSUExampleScenario.node[109].veinsmobility 	totalCO2Emission 	751.84440014494
scalar RSUExampleScenario.node[110].veinsmobility 	startTime 	330.1
scalar RSUExampleScenario.node[110].veinsmobility 	totalTime 	329.1
scalar RSUExampleScenario.node[110].veinsmobility 	stopTime 	659.3
scalar RSUExampleScenario.node[110].veinsmobility 	minSpeed 	0.25764443156356
scalar RSUExampleScenario.node[110].veinsmobility 	maxSpeed 	13.999918720052
scalar RSUExampleScenario.node[110].veinsmobility 	totalDistance 	3414.2752609288
scalar RSUExampleScenario.node[110].veinsmobility 	totalCO2Emission 	746.53853744132
scalar RSUExampleScenario.node[111].veinsmobility 	startTime 	333.1
scalar RSUExampleScenario.node[111].veinsmobility 	totalTime 	329.8
scalar RSUExampleScenario.node[111].veinsmobility 	stopTime 	663
scalar RSUExampleScenario.node[111].veinsmobility 	minSpeed 	0.25644334352831
scalar RSUExampleScenario.node[111].veinsmobility 	maxSpeed 	13.99996154946
scalar RSUExampleScenario.node[111].veinsmobility 	totalDistance 	3409.7231074856
scalar RSUExampleScenario.node[111].veinsmobility 	totalCO2Emission 	751.77319538172
scalar RSUExampleScenario.node[112].veinsmobility 	startTime 	336.1
scalar RSUExampleScenario.node[112].veinsmobility 	totalTime 	330.4
scalar RSUExampleScenario.node[112].veinsmobility 	stopTime 	666.6
scalar RSUExampleScenario.node[112].veinsmobility 	minSpeed 	0.25578120148368
scalar RSUExampleScenario.node[112].veinsmobility 	maxSpeed 	13.999990220959
scalar RSUExampleScenario.node[112].veinsmobility 	totalDistance 	3413.710386178
scalar RSUExampleScenario.node[112].veinsmobility 	totalCO2Emission 	751.49572320902
scalar RSUExampleScenario.node[113].veinsmobility 	startTime 	339.1
scalar RSUExampleScenario.node[113].veinsmobility 	totalTime 	331.1
scalar RSUExampleScenario.node[113].veinsmobility 	stopTime 	670.3
scalar RSUExampleScenario.node[113].veinsmobility 	minSpeed 	0.25175919717341
scalar RSUExampleScenario.node[113].veinsmobility 	maxSpeed 	13.999981008081
scalar RSUExampleScenario.node[113].veinsmobility 	totalDistance 	3410.2173251504
scalar RSUExampleScenario.node[113].veinsmobility 	totalCO2Emission 	752.62267083379
scalar RSUExampleScenario.node[114].veinsmobility 	startTime 	342.1
scalar RSUExampleScenario.node[114].veinsmobility 	totalTime 	331.8
scalar RSUExampleScenario.node[114].veinsmobility 	stopTime 	674
scalar RSUExampleScenario.node[114].veinsmobility 	minSpeed 	0.2579746390509
scalar RSUExampleScenario.node[114].veinsmobility 	maxSpeed 	13.999793875637
scalar RSUExampleScenario.node[114].veinsmobility 	totalDistance 	3414.0079746425
scalar RSUExampleScenario.node[114].veinsmobility 	totalCO2Emission 	752.06845586395
scalar RSUExampleScenario.node[115].veinsmobility 	startTime 	345.1
scalar RSUExampleScenario.node[115].veinsmobility 	totalTime 	332.5
scalar RSUExampleScenario.node[115].veinsmobility 	stopTime 	677.7
scalar RSUExampleScenario.node[115].veinsmobility 	minSpeed 	0.25478437805618
scalar RSUExampleScenario.node[115].veinsmobility 	maxSpeed 	13.999946165364
scalar RSUExampleScenario.node[115].veinsmobility 	totalDistance 	3409.604626363
scalar RSUExampleScenario.node[115].veinsmobility 	totalCO2Emission 	755.23017086205
scalar RSUExampleScenario.node[116].veinsmobility 	startTime 	348.1
scalar RSUExampleScenario.node[116].veinsmobility 	totalTime 	333.2
scalar RSUExampleScenario.node[116].veinsmobility 	stopTime 	681.4
scalar RSUExampleScenario.node[116].veinsmobility 	minSpeed 	0.25160000004061
scalar RSUExampleScenario.node[116].veinsmobility 	maxSpeed 	13.999831210831
scalar RSUExampleScenario.node[116].veinsmobility 	totalDistance 	3414.0735169193
scalar RSUExampleScenario.node[116].veinsmobility 	totalCO2Emission 	755.8604675715
scalar RSUExampleScenario.node[117].veinsmobility 	startTime 	351.1
scalar RSUExampleScenario.node[117].veinsmobility 	totalTime 	333.8
scalar RSUExampleScenario.node[117].veinsmobility 	stopTime 	685
scalar RSUExampleScenario.node[117].veinsmobility 	minSpeed 	0.2481675030347
scalar RSUExampleScenario.node[117].veinsmobility 	maxSpeed 	13.999913856017
scalar RSUExampleScenario.node[117].veinsmobility 	totalDistance 	3409.6186701056
scalar RSUExampleScenario.node[117].veinsmobility 	totalCO2Emission 	756.09563543363
scalar RSUExampleScenario.node[118].veinsmobility 	startTime 	354.1
scalar RSUExampleScenario.node[118].veinsmobility 	totalTime 	334.5
scalar RSUExampleScenario.node[118].veinsmobility 	stopTime 	688.7
scalar RSUExampleScenario.node[118].veinsmobility 	minSpeed 	0.25147937586624
scalar RSUExampleScenario.node[118].veinsmobility 	maxSpeed 	13.999977679087
scalar RSUExampleScenario.node[118].veinsmobility 	totalDistance 	3413.7887838146
scalar RSUExampleScenario.node[118].veinsmobility 	totalCO2Emission 	755.90959461571
scalar RSUExampleScenario.node[119].veinsmobility 	startTime 	357.1
scalar RSUExampleScenario.node[119].veinsmobility 	totalTime 	335.2
scalar RSUExampleScenario.node[119].veinsmobility 	stopTime 	692.4
scalar RSUExampleScenario.node[119].veinsmobility 	minSpeed 	0.25067498022784
scalar RSUExampleScenario.node[119].veinsmobility 	maxSpeed 	13.999982006138
scalar RSUExampleScenario.node[119].veinsmobility 	totalDistance 	3409.5261907127
scalar RSUExampleScenario.node[119].veinsmobility 	totalCO2Emission 	757.08294761518
scalar RSUExampleScenario.node[120].veinsmobility 	startTime 	360.1
scalar RSUExampleScenario.node[120].veinsmobility 	totalTime 	336
scalar RSUExampleScenario.node[120].veinsmobility 	stopTime 	696.2
scalar RSUExampleScenario.node[120].veinsmobility 	minSpeed 	0.25851852695574
scalar RSUExampleScenario.node[120].veinsmobility 	maxSpeed 	13.99998869509
scalar RSUExampleScenario.node[120].veinsmobility 	totalDistance 	3414.3927005632
scalar RSUExampleScenario.node[120].veinsmobility 	totalCO2Emission 	760.6551088669
scalar RSUExampleScenario.node[121].veinsmobility 	startTime 	363.1
scalar RSUExampleScenario.node[121].veinsmobility 	totalTime 	336.7
scalar RSUExampleScenario.node[121].veinsmobility 	stopTime 	699.9
scalar RSUExampleScenario.node[121].veinsmobility 	minSpeed 	0.25483142089238
scalar RSUExampleScenario.node[121].veinsmobility 	maxSpeed 	13.999895882222
scalar RSUExampleScenario.node[121].veinsmobility 	totalDistance 	3409.5783574812
scalar RSUExampleScenario.node[121].veinsmobility 	totalCO2Emission 	761.68432848635
scalar RSUExampleScenario.node[122].veinsmobility 	startTime 	366.1
scalar RSUExampleScenario.node[122].veinsmobility 	totalTime 	337.4
scalar RSUExampleScenario.node[122].veinsmobility 	stopTime 	703.6
scalar RSUExampleScenario.node[122].veinsmobility 	minSpeed 	0.24797756724199
scalar RSUExampleScenario.node[122].veinsmobility 	maxSpeed 	13.999991477081
scalar RSUExampleScenario.node[122].veinsmobility 	totalDistance 	3414.1306683559
scalar RSUExampleScenario.node[122].veinsmobility 	totalCO2Emission 	758.32167909027
scalar RSUExampleScenario.node[123].veinsmobility 	startTime 	369.1
scalar RSUExampleScenario.node[123].veinsmobility 	totalTime 	338.1
scalar RSUExampleScenario.node[123].veinsmobility 	stopTime 	707.3
scalar RSUExampleScenario.node[123].veinsmobility 	minSpeed 	0.25167321739416
scalar RSUExampleScenario.node[123].veinsmobility 	maxSpeed 	13.999996918084
scalar RSUExampleScenario.node[123].veinsmobility 	totalDistance 	3409.8897173708
scalar RSUExampleScenario.node[123].veinsmobility 	totalCO2Emission 	759.62548480105
scalar RSUExampleScenario.node[124].veinsmobility 	startTime 	372.1
scalar RSUExampleScenario.node[124].veinsmobility 	totalTime 	338.8
scalar RSUExampleScenario.node[124].veinsmobility 	stopTime 	711
scalar RSUExampleScenario.node[124].veinsmobility 	minSpeed 	0.25631555339973
scalar RSUExampleScenario.node[124].veinsmobility 	maxSpeed 	13.999873838564
scalar RSUExampleScenario.node[124].veinsmobility 	totalDistance 	3413.9806540136
scalar RSUExampleScenario.node[124].veinsmobility 	totalCO2Emission 	760.04124942776
scalar RSUExampleScenario.node[125].veinsmobility 	startTime 	375.1
scalar RSUExampleScenario.node[125].veinsmobility 	totalTime 	339.5
scalar RSUExampleScenario.node[125].veinsmobility 	stopTime 	714.7
scalar RSUExampleScenario.node[125].veinsmobility 	minSpeed 	0.25470529990387
scalar RSUExampleScenario.node[125].veinsmobility 	maxSpeed 	13.999995088051
scalar RSUExampleScenario.node[125].veinsmobility 	totalDistance 	3410.1812434321
scalar RSUExampleScenario.node[125].veinsmobility 	totalCO2Emission 	765.81739389108
scalar RSUExampleScenario.node[126].veinsmobility 	startTime 	378.1
scalar RSUExampleScenario.node[126].veinsmobility 	totalTime 	340.2
scalar RSUExampleScenario.node[126].veinsmobility 	stopTime 	718.4
scalar RSUExampleScenario.node[126].veinsmobility 	minSpeed 	0.2567118999213
scalar RSUExampleScenario.node[126].veinsmobility 	maxSpeed 	13.999917513176
scalar RSUExampleScenario.node[126].veinsmobility 	totalDistance 	3414.167052036
scalar RSUExampleScenario.node[126].veinsmobility 	totalCO2Emission 	765.0343065425
scalar RSUExampleScenario.node[127].veinsmobility 	startTime 	381.1
scalar RSUExampleScenario.node[127].veinsmobility 	totalTime 	340.9
scalar RSUExampleScenario.node[127].veinsmobility 	stopTime 	722.1
scalar RSUExampleScenario.node[127].veinsmobility 	minSpeed 	0.24921866871929
scalar RSUExampleScenario.node[127].veinsmobility 	maxSpeed 	13.999923589202
scalar RSUExampleScenario.node[127].veinsmobility 	totalDistance 	3409.6995927638
scalar RSUExampleScenario.node[127].veinsmobility 	totalCO2Emission 	759.00995063542
scalar RSUExampleScenario.node[128].veinsmobility 	startTime 	384.1
scalar RSUExampleScenario.node[128].veinsmobility 	totalTime 	341.5
scalar RSUExampleScenario.node[128].veinsmobility 	stopTime 	725.7
scalar RSUExampleScenario.node[128].veinsmobility 	minSpeed 	0.25969095921633
scalar RSUExampleScenario.node[128].veinsmobility 	maxSpeed 	13.999973182536
scalar RSUExampleScenario.node[128].veinsmobility 	totalDistance 	3413.6181393579
scalar RSUExampleScenario.node[128].veinsmobility 	totalCO2Emission 	759.31098253862
scalar RSUExampleScenario.node[129].veinsmobility 	startTime 	387.1
scalar RSUExampleScenario.node[129].veinsmobility 	totalTime 	342.1
scalar RSUExampleScenario.node[129].veinsmobility 	stopTime 	729.3
scalar RSUExampleScenario.node[129].veinsmobility 	minSpeed 	0.25435876444657
scalar RSUExampleScenario.node[129].veinsmobility 	maxSpeed 	13.999940335327
scalar RSUExampleScenario.node[129].veinsmobility 	totalDistance 	3410.0491187538
scalar RSUExampleScenario.node[129].veinsmobility 	totalCO2Emission 	764.1713910355
scalar RSUExampleScenario.node[130].veinsmobility 	startTime 	390.1
scalar RSUExampleScenario.node[130].veinsmobility 	totalTime 	342.9
scalar RSUExampleScenario.node[130].veinsmobility 	stopTime 	733.1
scalar RSUExampleScenario.node[130].veinsmobility 	minSpeed 	0.25561186499405
scalar RSUExampleScenario.node[130].veinsmobility 	maxSpeed 	13.99998786832
scalar RSUExampleScenario.node[130].veinsmobility 	totalDistance 	3414.319776213
scalar RSUExampleScenario.node[130].veinsmobility 	totalCO2Emission 	763.58810177068
scalar RSUExampleScenario.node[131].veinsmobility 	startTime 	393.1
scalar RSUExampleScenario.node[131].veinsmobility 	totalTime 	343.6
scalar RSUExampleScenario.node[131].veinsmobility 	stopTime 	736.8
scalar RSUExampleScenario.node[131].veinsmobility 	minSpeed 	0.25526154625369
scalar RSUExampleScenario.node[131].veinsmobility 	maxSpeed 	13.999999558178
scalar RSUExampleScenario.node[131].veinsmobility 	totalDistance 	3409.8403128094
scalar RSUExampleScenario.node[131].veinsmobility 	totalCO2Emission 	765.70171456443
scalar RSUExampleScenario.node[132].veinsmobility 	startTime 	396.1
scalar RSUExampleScenario.node[132].veinsmobility 	totalTime 	344.3
scalar RSUExampleScenario.node[132].veinsmobility 	stopTime 	740.5
scalar RSUExampleScenario.node[132].veinsmobility 	minSpeed 	0.25238364610146
scalar RSUExampleScenario.node[132].veinsmobility 	maxSpeed 	13.999866566802
scalar RSUExampleScenario.node[132].veinsmobility 	totalDistance 	3413.9081319652
scalar RSUExampleScenario.node[132].veinsmobility 	totalCO2Emission 	766.11373775834
scalar RSUExampleScenario.node[133].veinsmobility 	startTime 	399.1
scalar RSUExampleScenario.node[133].veinsmobility 	totalTime 	345
scalar RSUExampleScenario.node[133].veinsmobility 	stopTime 	744.2
scalar RSUExampleScenario.node[133].veinsmobility 	minSpeed 	0.25458463455597
scalar RSUExampleScenario.node[133].veinsmobility 	maxSpeed 	13.999857704609
scalar RSUExampleScenario.node[133].veinsmobility 	totalDistance 	3409.5357635598
scalar RSUExampleScenario.node[133].veinsmobility 	totalCO2Emission 	769.12649205984
scalar RSUExampleScenario.node[134].veinsmobility 	startTime 	402.1
scalar RSUExampleScenario.node[134].veinsmobility 	totalTime 	345.7
scalar RSUExampleScenario.node[134].veinsmobility 	stopTime 	747.9
scalar RSUExampleScenario.node[134].veinsmobility 	minSpeed 	0.24879387199413
scalar RSUExampleScenario.node[134].veinsmobility 	maxSpeed 	13.999992285508
scalar RSUExampleScenario.node[134].veinsmobility 	totalDistance 	3413.7081783754
scalar RSUExampleScenario.node[134].veinsmobility 	totalCO2Emission 	766.73917772915
scalar RSUExampleScenario.node[135].veinsmobility 	startTime 	405.1
scalar RSUExampleScenario.node[135].veinsmobility 	totalTime 	346.4
scalar RSUExampleScenario.node[135].veinsmobility 	stopTime 	751.6
scalar RSUExampleScenario.node[135].veinsmobility 	minSpeed 	0.2526003527029
scalar RSUExampleScenario.node[135].veinsmobility 	maxSpeed 	13.999959391081
scalar RSUExampleScenario.node[135].veinsmobility 	totalDistance 	3409.7920438072
scalar RSUExampleScenario.node[135].veinsmobility 	totalCO2Emission 	768.61261528954
scalar RSUExampleScenario.node[136].veinsmobility 	startTime 	408.1
scalar RSUExampleScenario.node[136].veinsmobility 	totalTime 	347.1
scalar RSUExampleScenario.node[136].veinsmobility 	stopTime 	755.3
scalar RSUExampleScenario.node[136].veinsmobility 	minSpeed 	0.24801570352726
scalar RSUExampleScenario.node[136].veinsmobility 	maxSpeed 	13.999996007835
scalar RSUExampleScenario.node[136].veinsmobility 	totalDistance 	3409.9187436485
scalar RSUExampleScenario.node[136].veinsmobility 	totalCO2Emission 	767.36332088919
scalar RSUExampleScenario.node[137].veinsmobility 	startTime 	411.1
scalar RSUExampleScenario.node[137].veinsmobility 	totalTime 	347.8
scalar RSUExampleScenario.node[137].veinsmobility 	stopTime 	759
scalar RSUExampleScenario.node[137].veinsmobility 	minSpeed 	0.25909335260512
scalar RSUExampleScenario.node[137].veinsmobility 	maxSpeed 	13.999928214876
scalar RSUExampleScenario.node[137].veinsmobility 	totalDistance 	3413.8037739145
scalar RSUExampleScenario.node[137].veinsmobility 	totalCO2Emission 	771.55469971898
scalar RSUExampleScenario.node[138].veinsmobility 	startTime 	414.1
scalar RSUExampleScenario.node[138].veinsmobility 	totalTime 	348.5
scalar RSUExampleScenario.node[138].veinsmobility 	stopTime 	762.7
scalar RSUExampleScenario.node[138].veinsmobility 	minSpeed 	0.25377530587791
scalar RSUExampleScenario.node[138].veinsmobility 	maxSpeed 	13.999877327888
scalar RSUExampleScenario.node[138].veinsmobility 	totalDistance 	3409.9690796222
scalar RSUExampleScenario.node[138].veinsmobility 	totalCO2Emission 	765.70572595881
scalar RSUExampleScenario.node[139].veinsmobility 	startTime 	417.1
scalar RSUExampleScenario.node[139].veinsmobility 	totalTime 	349.1
scalar RSUExampleScenario.node[139].veinsmobility 	stopTime 	766.3
scalar RSUExampleScenario.node[139].veinsmobility 	minSpeed 	0.25167947983393
scalar RSUExampleScenario.node[139].veinsmobility 	maxSpeed 	13.999840418685
scalar RSUExampleScenario.node[139].veinsmobility 	totalDistance 	3413.8447121076
scalar RSUExampleScenario.node[139].veinsmobility 	totalCO2Emission 	775.474199498
scalar RSUExampleScenario.node[140].veinsmobility 	startTime 	420.1
scalar RSUExampleScenario.node[140].veinsmobility 	totalTime 	349.8
scalar RSUExampleScenario.node[140].veinsmobility 	stopTime 	770
scalar RSUExampleScenario.node[140].veinsmobility 	minSpeed 	0.25638370675314
scalar RSUExampleScenario.node[140].veinsmobility 	maxSpeed 	13.999988400401
scalar RSUExampleScenario.node[140].veinsmobility 	totalDistance 	3410.0120471905
scalar RSUExampleScenario.node[140].veinsmobility 	totalCO2Emission 	769.71898250925
scalar RSUExampleScenario.node[141].veinsmobility 	startTime 	423.1
scalar RSUExampleScenario.node[141].veinsmobility 	totalTime 	350.5
scalar RSUExampleScenario.node[141].veinsmobility 	stopTime 	773.7
scalar RSUExampleScenario.node[141].veinsmobility 	minSpeed 	0.25219270154345
scalar RSUExampleScenario.node[141].veinsmobility 	maxSpeed 	13.999873662828
scalar RSUExampleScenario.node[141].veinsmobility 	totalDistance 	3414.1255612804
scalar RSUExampleScenario.node[141].veinsmobility 	totalCO2Emission 	769.84810667795
scalar RSUExampleScenario.node[142].veinsmobility 	startTime 	426.1
scalar RSUExampleScenario.node[142].veinsmobility 	totalTime 	351.2
scalar RSUExampleScenario.node[142].veinsmobility 	stopTime 	777.4
scalar RSUExampleScenario.node[142].veinsmobility 	minSpeed 	0.24918163045053
scalar RSUExampleScenario.node[142].veinsmobility 	maxSpeed 	13.999892163347
scalar RSUExampleScenario.node[142].veinsmobility 	totalDistance 	3409.9216771667
scalar RSUExampleScenario.node[142].veinsmobility 	totalCO2Emission 	774.41051104736
scalar RSUExampleScenario.node[143].veinsmobility 	startTime 	429.1
scalar RSUExampleScenario.node[143].veinsmobility 	totalTime 	351.8
scalar RSUExampleScenario.node[143].veinsmobility 	stopTime 	781
scalar RSUExampleScenario.node[143].veinsmobility 	minSpeed 	0.25788930559903
scalar RSUExampleScenario.node[143].veinsmobility 	maxSpeed 	13.999973300037
scalar RSUExampleScenario.node[143].veinsmobility 	totalDistance 	3413.7183860174
scalar RSUExampleScenario.node[143].veinsmobility 	totalCO2Emission 	773.26610591879
scalar RSUExampleScenario.node[144].veinsmobility 	startTime 	432.1
scalar RSUExampleScenario.node[144].veinsmobility 	totalTime 	352.4
scalar RSUExampleScenario.node[144].veinsmobility 	stopTime 	784.6
scalar RSUExampleScenario.node[144].veinsmobility 	minSpeed 	0.25147063011094
scalar RSUExampleScenario.node[144].veinsmobility 	maxSpeed 	13.999908602827
scalar RSUExampleScenario.node[144].veinsmobility 	totalDistance 	3409.5728433059
scalar RSUExampleScenario.node[144].veinsmobility 	totalCO2Emission 	772.28650499181
scalar RSUExampleScenario.node[145].veinsmobility 	startTime 	435.1
scalar RSUExampleScenario.node[145].veinsmobility 	totalTime 	353.1
scalar RSUExampleScenario.node[145].veinsmobility 	stopTime 	788.3
scalar RSUExampleScenario.node[145].veinsmobility 	minSpeed 	0.25926991991024
scalar RSUExampleScenario.node[145].veinsmobility 	maxSpeed 	13.999860912047
scalar RSUExampleScenario.node[145].veinsmobility 	totalDistance 	3414.1979972875
scalar RSUExampleScenario.node[145].veinsmobility 	totalCO2Emission 	776.3782824353
scalar RSUExampleScenario.node[146].veinsmobility 	startTime 	438.1
scalar RSUExampleScenario.node[146].veinsmobility 	totalTime 	353.7
scalar RSUExampleScenario.node[146].veinsmobility 	stopTime 	791.9
scalar RSUExampleScenario.node[146].veinsmobility 	minSpeed 	0.25953295759927
scalar RSUExampleScenario.node[146].veinsmobility 	maxSpeed 	13.999920727818
scalar RSUExampleScenario.node[146].veinsmobility 	totalDistance 	3409.7608081774
scalar RSUExampleScenario.node[146].veinsmobility 	totalCO2Emission 	775.09273020158
scalar RSUExampleScenario.node[147].veinsmobility 	startTime 	441.1
scalar RSUExampleScenario.node[147].veinsmobility 	totalTime 	354.4
scalar RSUExampleScenario.node[147].veinsmobility 	stopTime 	795.6
scalar RSUExampleScenario.node[147].veinsmobility 	minSpeed 	0.2535924565224
scalar RSUExampleScenario.node[147].veinsmobility 	maxSpeed 	13.999908584848
scalar RSUExampleScenario.node[147].veinsmobility 	totalDistance 	3413.9990766155
scalar RSUExampleScenario.node[147].veinsmobility 	totalCO2Emission 	775.97429945321
scalar RSUExampleScenario.node[148].veinsmobility 	startTime 	444.1
scalar RSUExampleScenario.node[148].veinsmobility 	totalTime 	355
scalar RSUExampleScenario.node[148].veinsmobility 	stopTime 	799.2
scalar RSUExampleScenario.node[148].veinsmobility 	minSpeed 	0.25371898116474
scalar RSUExampleScenario.node[148].veinsmobility 	maxSpeed 	13.999930841592
scalar RSUExampleScenario.node[148].veinsmobility 	totalDistance 	3409.6971320461
scalar RSUExampleScenario.node[148].veinsmobility 	totalCO2Emission 	778.35380053053
scalar RSUExampleScenario.node[149].veinsmobility 	startTime 	447.1
scalar RSUExampleScenario.node[149].veinsmobility 	totalTime 	355.7
scalar RSUExampleScenario.node[149].veinsmobility 	stopTime 	802.9
scalar RSUExampleScenario.node[149].veinsmobility 	minSpeed 	0.25697719394928
scalar RSUExampleScenario.node[149].veinsmobility 	maxSpeed 	13.999974266947
scalar RSUExampleScenario.node[149].veinsmobility 	totalDistance 	3414.2992637147
scalar RSUExampleScenario.node[149].veinsmobility 	totalCO2Emission 	775.71659260476
scalar RSUExampleScenario.node[150].veinsmobility 	startTime 	450.1
scalar RSUExampleScenario.node[150].veinsmobility 	totalTime 	356.4
scalar RSUExampleScenario.node[150].veinsmobility 	stopTime 	806.6
scalar RSUExampleScenario.node[150].veinsmobility 	minSpeed 	0.25399326607026
scalar RSUExampleScenario.node[150].veinsmobility 	maxSpeed 	13.999982558135
scalar RSUExampleScenario.node[150].veinsmobility 	totalDistance 	3409.8701693506
scalar RSUExampleScenario.node[150].veinsmobility 	totalCO2Emission 	777.14254623077
scalar RSUExampleScenario.node[151].veinsmobility 	startTime 	453.1
scalar RSUExampleScenario.node[151].veinsmobility 	totalTime 	357.1
scalar RSUExampleScenario.node[151].veinsmobility 	stopTime 	810.3
scalar RSUExampleScenario.node[151].veinsmobility 	minSpeed 	0.25313167421869
scalar RSUExampleScenario.node[151].veinsmobility 	maxSpeed 	13.999998707739
scalar RSUExampleScenario.node[151].veinsmobility 	totalDistance 	3413.9515583588
scalar RSUExampleScenario.node[151].veinsmobility 	totalCO2Emission 	782.05067811393
scalar RSUExampleScenario.node[152].veinsmobility 	startTime 	456.1
scalar RSUExampleScenario.node[152].veinsmobility 	totalTime 	357.7
scalar RSUExampleScenario.node[152].veinsmobility 	stopTime 	813.9
scalar RSUExampleScenario.node[152].veinsmobility 	minSpeed 	0.25182586095762
scalar RSUExampleScenario.node[152].veinsmobility 	maxSpeed 	13.999995551212
scalar RSUExampleScenario.node[152].veinsmobility 	totalDistance 	3409.8413259477
[...]
scalar RSUExampleScenario.node[227].veinsmobility 	totalCO2Emission 	831.45879630051
scalar RSUExampleScenario.node[228].veinsmobility 	startTime 	684.1
scalar RSUExampleScenario.node[228].veinsmobility 	totalTime 	410
scalar RSUExampleScenario.node[228].veinsmobility 	stopTime 	1094.2
scalar RSUExampleScenario.node[228].veinsmobility 	minSpeed 	0.25008947304031
scalar RSUExampleScenario.node[228].veinsmobility 	maxSpeed 	13.999978632438
scalar RSUExampleScenario.node[228].veinsmobility 	totalDistance 	3413.9521342713
scalar RSUExampleScenario.node[228].veinsmobility 	totalCO2Emission 	829.12546870537
scalar RSUExampleScenario.node[229].veinsmobility 	startTime 	687.1
scalar RSUExampleScenario.node[229].veinsmobility 	totalTime 	410.8
scalar RSUExampleScenario.node[229].veinsmobility 	stopTime 	1098
scalar RSUExampleScenario.node[229].veinsmobility 	minSpeed 	0.25341849904391
scalar RSUExampleScenario.node[229].veinsmobility 	maxSpeed 	13.999867681572
scalar RSUExampleScenario.node[229].veinsmobility 	totalDistance 	3410.0996425706
scalar RSUExampleScenario.node[229].veinsmobility 	totalCO2Emission 	830.51021507496
scalar RSUExampleScenario.node[230].veinsmobility 	startTime 	690.1
scalar RSUExampleScenario.node[230].veinsmobility 	totalTime 	411.6
scalar RSUExampleScenario.node[230].veinsmobility 	stopTime 	1101.8
scalar RSUExampleScenario.node[230].veinsmobility 	minSpeed 	0.25611738750921
scalar RSUExampleScenario.node[230].veinsmobility 	maxSpeed 	13.999836733982
scalar RSUExampleScenario.node[230].veinsmobility 	totalDistance 	3414.200147599
scalar RSUExampleScenario.node[230].veinsmobility 	totalCO2Emission 	835.90729324859
scalar RSUExampleScenario.node[231].veinsmobility 	startTime 	693.1
scalar RSUExampleScenario.node[231].veinsmobility 	totalTime 	412.3
scalar RSUExampleScenario.node[231].veinsmobility 	stopTime 	1105.5
scalar RSUExampleScenario.node[231].veinsmobility 	minSpeed 	0.25866046641325
scalar RSUExampleScenario.node[231].veinsmobility 	maxSpeed 	13.999934652997
scalar RSUExampleScenario.node[231].veinsmobility 	totalDistance 	3409.6192366531
scalar RSUExampleScenario.node[231].veinsmobility 	totalCO2Emission 	837.06459089943
scalar RSUExampleScenario.node[232].veinsmobility 	startTime 	696.1
scalar RSUExampleScenario.node[232].veinsmobility 	totalTime 	413
scalar RSUExampleScenario.node[232].veinsmobility 	stopTime 	1109.2
scalar RSUExampleScenario.node[232].veinsmobility 	minSpeed 	0.25233423505886
scalar RSUExampleScenario.node[232].veinsmobility 	maxSpeed 	13.999966338249
scalar RSUExampleScenario.node[232].veinsmobility 	totalDistance 	3414.2412514908
scalar RSUExampleScenario.node[232].veinsmobility 	totalCO2Emission 	832.58465426387
scalar RSUExampleScenario.node[233].veinsmobility 	startTime 	699.1
scalar RSUExampleScenario.node[233].veinsmobility 	totalTime 	413.7
scalar RSUExampleScenario.node[233].veinsmobility 	stopTime 	1112.9
scalar RSUExampleScenario.node[233].veinsmobility 	minSpeed 	0.24811022646003
scalar RSUExampleScenario.node[233].veinsmobility 	maxSpeed 	13.999930959849
scalar RSUExampleScenario.node[233].veinsmobility 	totalDistance 	3409.8279410242
scalar RSUExampleScenario.node[233].veinsmobility 	totalCO2Emission 	832.80233429679
scalar RSUExampleScenario.node[234].veinsmobility 	startTime 	702.1
scalar RSUExampleScenario.node[234].veinsmobility 	totalTime 	414.4
scalar RSUExampleScenario.node[234].veinsmobility 	stopTime 	1116.6
scalar RSUExampleScenario.node[234].veinsmobility 	minSpeed 	0.25595780883031
scalar RSUExampleScenario.node[234].veinsmobility 	maxSpeed 	13.999969403185
scalar RSUExampleScenario.node[234].veinsmobility 	totalDistance 	3410.3138583334
scalar RSUExampleScenario.node[234].veinsmobility 	totalCO2Emission 	838.98373312803
scalar RSUExampleScenario.node[235].veinsmobility 	startTime 	705.1
scalar RSUExampleScenario.node[235].veinsmobility 	totalTime 	415.1
scalar RSUExampleScenario.node[235].veinsmobility 	stopTime 	1120.3
scalar RSUExampleScenario.node[235].veinsmobility 	minSpeed 	0.25362132110074
scalar RSUExampleScenario.node[235].veinsmobility 	maxSpeed 	13.999911238684
scalar RSUExampleScenario.node[235].veinsmobility 	totalDistance 	3414.1418959002
scalar RSUExampleScenario.node[235].veinsmobility 	totalCO2Emission 	839.61051315081
scalar RSUExampleScenario.node[236].veinsmobility 	startTime 	708.1
scalar RSUExampleScenario.node[236].veinsmobility 	totalTime 	415.8
scalar RSUExampleScenario.node[236].veinsmobility 	stopTime 	1124
scalar RSUExampleScenario.node[236].veinsmobility 	minSpeed 	0.25751733798301
scalar RSUExampleScenario.node[236].veinsmobility 	maxSpeed 	13.999979063272
scalar RSUExampleScenario.node[236].veinsmobility 	totalDistance 	3410.1078020537
scalar RSUExampleScenario.node[236].veinsmobility 	totalCO2Emission 	838.17115820442
scalar RSUExampleScenario.node[237].veinsmobility 	startTime 	711.1
scalar RSUExampleScenario.node[237].veinsmobility 	totalTime 	416.4
scalar RSUExampleScenario.node[237].veinsmobility 	stopTime 	1127.6
scalar RSUExampleScenario.node[237].veinsmobility 	minSpeed 	0.24714914137614
scalar RSUExampleScenario.node[237].veinsmobility 	maxSpeed 	13.999801281455
scalar RSUExampleScenario.node[237].veinsmobility 	totalDistance 	3413.8037806023
scalar RSUExampleScenario.node[237].veinsmobility 	totalCO2Emission 	834.68245248404
scalar RSUExampleScenario.node[238].veinsmobility 	startTime 	714.1
scalar RSUExampleScenario.node[238].veinsmobility 	totalTime 	417.1
scalar RSUExampleScenario.node[238].veinsmobility 	stopTime 	1131.3
scalar RSUExampleScenario.node[238].veinsmobility 	minSpeed 	0.25251066862489
scalar RSUExampleScenario.node[238].veinsmobility 	maxSpeed 	13.999928667201
scalar RSUExampleScenario.node[238].veinsmobility 	totalDistance 	3410.0050428015
scalar RSUExampleScenario.node[238].veinsmobility 	totalCO2Emission 	839.47930034665
scalar RSUExampleScenario.node[239].veinsmobility 	startTime 	717.1
scalar RSUExampleScenario.node[239].veinsmobility 	totalTime 	417.8
scalar RSUExampleScenario.node[239].veinsmobility 	stopTime 	1135
scalar RSUExampleScenario.node[239].veinsmobility 	minSpeed 	0.24724713030481
scalar RSUExampleScenario.node[239].veinsmobility 	maxSpeed 	13.999873485307
scalar RSUExampleScenario.node[239].veinsmobility 	totalDistance 	3413.9104176474
scalar RSUExampleScenario.node[239].veinsmobility 	totalCO2Emission 	838.60103796199
scalar RSUExampleScenario.node[240].veinsmobility 	startTime 	720.1
scalar RSUExampleScenario.node[240].veinsmobility 	totalTime 	418.5
scalar RSUExampleScenario.node[240].veinsmobility 	stopTime 	1138.7
scalar RSUExampleScenario.node[240].veinsmobility 	minSpeed 	0.25669425181323
scalar RSUExampleScenario.node[240].veinsmobility 	maxSpeed 	13.999877396536
scalar RSUExampleScenario.node[240].veinsmobility 	totalDistance 	3409.7489768282
scalar RSUExampleScenario.node[240].veinsmobility 	totalCO2Emission 	840.97134511526
scalar RSUExampleScenario.node[241].veinsmobility 	startTime 	723.1
scalar RSUExampleScenario.node[241].veinsmobility 	totalTime 	419.2
scalar RSUExampleScenario.node[241].veinsmobility 	stopTime 	1142.4
scalar RSUExampleScenario.node[241].veinsmobility 	minSpeed 	0.25069120280468
scalar RSUExampleScenario.node[241].veinsmobility 	maxSpeed 	13.999960766095
scalar RSUExampleScenario.node[241].veinsmobility 	totalDistance 	3410.3013631671
scalar RSUExampleScenario.node[241].veinsmobility 	totalCO2Emission 	841.70225530804
scalar RSUExampleScenario.node[242].veinsmobility 	startTime 	726.1
scalar RSUExampleScenario.node[242].veinsmobility 	totalTime 	419.9
scalar RSUExampleScenario.node[242].veinsmobility 	stopTime 	1146.1
scalar RSUExampleScenario.node[242].veinsmobility 	minSpeed 	0.25973800633242
scalar RSUExampleScenario.node[242].veinsmobility 	maxSpeed 	13.999906764622
scalar RSUExampleScenario.node[242].veinsmobility 	totalDistance 	3414.3202302739
scalar RSUExampleScenario.node[242].veinsmobility 	totalCO2Emission 	845.29355367578
scalar RSUExampleScenario.node[243].veinsmobility 	startTime 	729.1
scalar RSUExampleScenario.node[243].veinsmobility 	totalTime 	420.6
scalar RSUExampleScenario.node[243].veinsmobility 	stopTime 	1149.8
scalar RSUExampleScenario.node[243].veinsmobility 	minSpeed 	0.2480775338565
scalar RSUExampleScenario.node[243].veinsmobility 	maxSpeed 	13.999924010774
scalar RSUExampleScenario.node[243].veinsmobility 	totalDistance 	3409.8921205675
scalar RSUExampleScenario.node[243].veinsmobility 	totalCO2Emission 	841.85842585928
scalar RSUExampleScenario.node[244].veinsmobility 	startTime 	732.1
scalar RSUExampleScenario.node[244].veinsmobility 	totalTime 	421.3
scalar RSUExampleScenario.node[244].veinsmobility 	stopTime 	1153.5
scalar RSUExampleScenario.node[244].veinsmobility 	minSpeed 	0.24708862938709
scalar RSUExampleScenario.node[244].veinsmobility 	maxSpeed 	13.999936223179
scalar RSUExampleScenario.node[244].veinsmobility 	totalDistance 	3414.3233518956
scalar RSUExampleScenario.node[244].veinsmobility 	totalCO2Emission 	843.05381793565
scalar RSUExampleScenario.node[245].veinsmobility 	startTime 	735.1
scalar RSUExampleScenario.node[245].veinsmobility 	totalTime 	421.9
scalar RSUExampleScenario.node[245].veinsmobility 	stopTime 	1157.1
scalar RSUExampleScenario.node[245].veinsmobility 	minSpeed 	0.25981639218936
scalar RSUExampleScenario.node[245].veinsmobility 	maxSpeed 	13.99995585463
scalar RSUExampleScenario.node[245].veinsmobility 	totalDistance 	3409.8042751157
scalar RSUExampleScenario.node[245].veinsmobility 	totalCO2Emission 	842.51514917203
scalar RSUExampleScenario.node[246].veinsmobility 	startTime 	738.1
scalar RSUExampleScenario.node[246].veinsmobility 	totalTime 	422.5
scalar RSUExampleScenario.node[246].veinsmobility 	stopTime 	1160.7
scalar RSUExampleScenario.node[246].veinsmobility 	minSpeed 	0.24862145093968
scalar RSUExampleScenario.node[246].veinsmobility 	maxSpeed 	13.999871863306
scalar RSUExampleScenario.node[246].veinsmobility 	totalDistance 	3414.219562965
scalar RSUExampleScenario.node[246].veinsmobility 	totalCO2Emission 	846.72453787671
scalar RSUExampleScenario.node[247].veinsmobility 	startTime 	741.1
scalar RSUExampleScenario.node[247].veinsmobility 	totalTime 	423.2
scalar RSUExampleScenario.node[247].veinsmobility 	stopTime 	1164.4
scalar RSUExampleScenario.node[247].veinsmobility 	minSpeed 	0.24965493875672
scalar RSUExampleScenario.node[247].veinsmobility 	maxSpeed 	13.999985838761
scalar RSUExampleScenario.node[247].veinsmobility 	totalDistance 	3409.9433563388
scalar RSUExampleScenario.node[247].veinsmobility 	totalCO2Emission 	845.82552484635
scalar RSUExampleScenario.node[248].veinsmobility 	startTime 	744.1
scalar RSUExampleScenario.node[248].veinsmobility 	totalTime 	423.9
scalar RSUExampleScenario.node[248].veinsmobility 	stopTime 	1168.1
scalar RSUExampleScenario.node[248].veinsmobility 	minSpeed 	0.24810778849502
scalar RSUExampleScenario.node[248].veinsmobility 	maxSpeed 	13.999957222743
scalar RSUExampleScenario.node[248].veinsmobility 	totalDistance 	3414.4909810154
scalar RSUExampleScenario.node[248].veinsmobility 	totalCO2Emission 	846.82945081985
scalar RSUExampleScenario.node[249].veinsmobility 	startTime 	747.1
scalar RSUExampleScenario.node[249].veinsmobility 	totalTime 	424.6
scalar RSUExampleScenario.node[249].veinsmobility 	stopTime 	1171.8
scalar RSUExampleScenario.node[249].veinsmobility 	minSpeed 	0.24907542437571
scalar RSUExampleScenario.node[249].veinsmobility 	maxSpeed 	13.999988947737
scalar RSUExampleScenario.node[249].veinsmobility 	totalDistance 	3409.7662395214
scalar RSUExampleScenario.node[249].veinsmobility 	totalCO2Emission 	845.50603567257
scalar RSUExampleScenario.node[250].veinsmobility 	startTime 	750.1
scalar RSUExampleScenario.node[250].veinsmobility 	totalTime 	425.3
scalar RSUExampleScenario.node[250].veinsmobility 	stopTime 	1175.5
scalar RSUExampleScenario.node[250].veinsmobility 	minSpeed 	0.25032792074094
scalar RSUExampleScenario.node[250].veinsmobility 	maxSpeed 	13.999956012235
scalar RSUExampleScenario.node[250].veinsmobility 	totalDistance 	3414.4449067349
scalar RSUExampleScenario.node[250].veinsmobility 	totalCO2Emission 	845.85464366518
scalar RSUExampleScenario.node[251].veinsmobility 	startTime 	753.1
scalar RSUExampleScenario.node[251].veinsmobility 	totalTime 	426
scalar RSUExampleScenario.node[251].veinsmobility 	stopTime 	1179.2
scalar RSUExampleScenario.node[251].veinsmobility 	minSpeed 	0.25840714954142
scalar RSUExampleScenario.node[251].veinsmobility 	maxSpeed 	13.999968654537
scalar RSUExampleScenario.node[251].veinsmobility 	totalDistance 	3409.7432845066
scalar RSUExampleScenario.node[251].veinsmobility 	totalCO2Emission 	847.60659848594
scalar RSUExampleScenario.node[252].veinsmobility 	startTime 	756.1
scalar RSUExampleScenario.node[252].veinsmobility 	totalTime 	426.8
scalar RSUExampleScenario.node[252].veinsmobility 	stopTime 	1183
scalar RSUExampleScenario.node[252].veinsmobility 	minSpeed 	0.24990387618728
scalar RSUExampleScenario.node[252].veinsmobility 	maxSpeed 	13.999875224747
scalar RSUExampleScenario.node[252].veinsmobility 	totalDistance 	3414.4466931573
scalar RSUExampleScenario.node[252].veinsmobility 	totalCO2Emission 	847.00210275085
scalar RSUExampleScenario.node[253].veinsmobility 	startTime 	759.1
scalar RSUExampleScenario.node[253].veinsmobility 	totalTime 	427.5
scalar RSUExampleScenario.node[253].veinsmobility 	stopTime 	1186.7
scalar RSUExampleScenario.node[253].veinsmobility 	minSpeed 	0.25182362376922
scalar RSUExampleScenario.node[253].veinsmobility 	maxSpeed 	13.999991769469
scalar RSUExampleScenario.node[253].veinsmobility 	totalDistance 	3409.9172393528
scalar RSUExampleScenario.node[253].veinsmobility 	totalCO2Emission 	850.49961722752
scalar RSUExampleScenario.node[254].veinsmobility 	startTime 	762.1
scalar RSUExampleScenario.node[254].veinsmobility 	totalTime 	428.2
scalar RSUExampleScenario.node[254].veinsmobility 	stopTime 	1190.4
scalar RSUExampleScenario.node[254].veinsmobility 	minSpeed 	0.24728937014169
scalar RSUExampleScenario.node[254].veinsmobility 	maxSpeed 	13.999973716161
scalar RSUExampleScenario.node[254].veinsmobility 	totalDistance 	3414.2725472177
scalar RSUExampleScenario.node[254].veinsmobility 	totalCO2Emission 	848.08272960029
scalar RSUExampleScenario.node[255].veinsmobility 	startTime 	765.1
scalar RSUExampleScenario.node[255].veinsmobility 	totalTime 	428.9
scalar RSUExampleScenario.node[255].veinsmobility 	stopTime 	1194.1
scalar RSUExampleScenario.node[255].veinsmobility 	minSpeed 	0.253460191224
scalar RSUExampleScenario.node[255].veinsmobility 	maxSpeed 	13.999956822752
scalar RSUExampleScenario.node[255].veinsmobility 	totalDistance 	3410.1972151305
scalar RSUExampleScenario.node[255].veinsmobility 	totalCO2Emission 	851.61555456223
scalar RSUExampleScenario.node[256].veinsmobility 	startTime 	768.1
scalar RSUExampleScenario.node[256].veinsmobility 	totalTime 	429.7
scalar RSUExampleScenario.node[256].veinsmobility 	stopTime 	1197.9
scalar RSUExampleScenario.node[256].veinsmobility 	minSpeed 	0.25894058307237
scalar RSUExampleScenario.node[256].veinsmobility 	maxSpeed 	13.999987790955
scalar RSUExampleScenario.node[256].veinsmobility 	totalDistance 	3414.4628040341
scalar RSUExampleScenario.node[256].veinsmobility 	totalCO2Emission 	851.33210629264
scalar RSUExampleScenario.node[257].veinsmobility 	startTime 	771.1
scalar RSUExampleScenario.node[257].veinsmobility 	totalTime 	430.3
scalar RSUExampleScenario.node[257].veinsmobility 	stopTime 	1201.5
scalar RSUExampleScenario.node[257].veinsmobility 	minSpeed 	0.25111008891603
scalar RSUExampleScenario.node[257].veinsmobility 	maxSpeed 	13.999981295506
scalar RSUExampleScenario.node[257].veinsmobility 	totalDistance 	3409.7154489046
scalar RSUExampleScenario.node[257].veinsmobility 	totalCO2Emission 	857.06614527772
scalar RSUExampleScenario.node[258].veinsmobility 	startTime 	774.1
scalar RSUExampleScenario.node[258].veinsmobility 	totalTime 	431
scalar RSUExampleScenario.node[258].veinsmobility 	stopTime 	1205.2
scalar RSUExampleScenario.node[258].veinsmobility 	minSpeed 	0.25672303547012
scalar RSUExampleScenario.node[258].veinsmobility 	maxSpeed 	13.999933805645
scalar RSUExampleScenario.node[258].veinsmobility 	totalDistance 	3414.1120706082
scalar RSUExampleScenario.node[258].veinsmobility 	totalCO2Emission 	852.0374014821
scalar RSUExampleScenario.node[259].veinsmobility 	startTime 	777.1
scalar RSUExampleScenario.node[259].veinsmobility 	totalTime 	431.7
scalar RSUExampleScenario.node[259].veinsmobility 	stopTime 	1208.9
scalar RSUExampleScenario.node[259].veinsmobility 	minSpeed 	0.25821855049487
scalar RSUExampleScenario.node[259].veinsmobility 	maxSpeed 	13.999925108533
scalar RSUExampleScenario.node[259].veinsmobility 	totalDistance 	3410.1063813643
scalar RSUExampleScenario.node[259].veinsmobility 	totalCO2Emission 	856.25783808819
scalar RSUExampleScenario.node[260].veinsmobility 	startTime 	780.1
scalar RSUExampleScenario.node[260].veinsmobility 	totalTime 	432.3
scalar RSUExampleScenario.node[260].veinsmobility 	stopTime 	1212.5
scalar RSUExampleScenario.node[260].veinsmobility 	minSpeed 	0.25240072232322
scalar RSUExampleScenario.node[260].veinsmobility 	maxSpeed 	13.999928686814
scalar RSUExampleScenario.node[260].veinsmobility 	totalDistance 	3414.1444363411
scalar RSUExampleScenario.node[260].veinsmobility 	totalCO2Emission 	856.14298599133
scalar RSUExampleScenario.node[261].veinsmobility 	startTime 	783.1
scalar RSUExampleScenario.node[261].veinsmobility 	totalTime 	432.9
scalar RSUExampleScenario.node[261].veinsmobility 	stopTime 	1216.1
scalar RSUExampleScenario.node[261].veinsmobility 	minSpeed 	0.25208380821045
scalar RSUExampleScenario.node[261].veinsmobility 	maxSpeed 	13.999982498174
scalar RSUExampleScenario.node[261].veinsmobility 	totalDistance 	3409.7575197577
scalar RSUExampleScenario.node[261].veinsmobility 	totalCO2Emission 	853.08228520165
scalar RSUExampleScenario.node[262].veinsmobility 	startTime 	786.1
scalar RSUExampleScenario.node[262].veinsmobility 	totalTime 	433.5
scalar RSUExampleScenario.node[262].veinsmobility 	stopTime 	1219.7
scalar RSUExampleScenario.node[262].veinsmobility 	minSpeed 	0.25919374795048
scalar RSUExampleScenario.node[262].veinsmobility 	maxSpeed 	13.999962795987
scalar RSUExampleScenario.node[262].veinsmobility 	totalDistance 	3413.9635507635
scalar RSUExampleScenario.node[262].veinsmobility 	totalCO2Emission 	857.13324223922
scalar RSUExampleScenario.node[263].veinsmobility 	startTime 	789.1
scalar RSUExampleScenario.node[263].veinsmobility 	totalTime 	434.2
scalar RSUExampleScenario.node[263].veinsmobility 	stopTime 	1223.4
scalar RSUExampleScenario.node[263].veinsmobility 	minSpeed 	0.25560054978658
scalar RSUExampleScenario.node[263].veinsmobility 	maxSpeed 	13.999952834188
scalar RSUExampleScenario.node[263].veinsmobility 	totalDistance 	3410.4090163878
scalar RSUExampleScenario.node[263].veinsmobility 	totalCO2Emission 	853.25095507053
scalar RSUExampleScenario.node[264].veinsmobility 	startTime 	792.1
scalar RSUExampleScenario.node[264].veinsmobility 	totalTime 	434.9
scalar RSUExampleScenario.node[264].veinsmobility 	stopTime 	1227.1
scalar RSUExampleScenario.node[264].veinsmobility 	minSpeed 	0.25785809640517
scalar RSUExampleScenario.node[264].veinsmobility 	maxSpeed 	13.999964165825
scalar RSUExampleScenario.node[264].veinsmobility 	totalDistance 	3414.1066928594
scalar RSUExampleScenario.node[264].veinsmobility 	totalCO2Emission 	860.66226287466
scalar RSUExampleScenario.node[265].veinsmobility 	startTime 	795.1
scalar RSUExampleScenario.node[265].veinsmobility 	totalTime 	435.6
scalar RSUExampleScenario.node[265].veinsmobility 	stopTime 	1230.8
scalar RSUExampleScenario.node[265].veinsmobility 	minSpeed 	0.24831759442599
scalar RSUExampleScenario.node[265].veinsmobility 	maxSpeed 	13.999912485331
scalar RSUExampleScenario.node[265].veinsmobility 	totalDistance 	3410.2244493236
scalar RSUExampleScenario.node[