version 2
run statisticRVV-85-20150327-02:45:13-14748
attr c 9
attr configname statisticRVV
attr datetime 20150327-02:45:13
attr experiment statisticRVV
attr inifile omnetpp.ini
attr iterationvars "$sc=\"erlangen-low.launchd.xml\", $p=1/8, $c=9"
attr iterationvars2 "$sc=\"erlangen-low.launchd.xml\", $p=1/8, $c=9, $repetition=5"
attr measurement "$sc=\"erlangen-low.launchd.xml\", $p=1/8, $c=9"
attr network RSUExampleScenario
attr p 1/8
attr processid 14748
attr repetition 5
attr replication #5
attr resultdir results
attr runnumber 85
attr sc "\"erlangen-low.launchd.xml\""
attr seedset 85

scalar . 	c 	9
scalar RSUExampleScenario.node[0].veinsmobility 	startTime 	0.1
scalar RSUExampleScenario.node[0].veinsmobility 	totalTime 	226.6
scalar RSUExampleScenario.node[0].veinsmobility 	stopTime 	226.8
scalar RSUExampleScenario.node[0].veinsmobility 	minSpeed 	0.25193514046771
scalar RSUExampleScenario.node[0].veinsmobility 	maxSpeed 	18.999750760952
scalar RSUExampleScenario.node[0].veinsmobility 	totalDistance 	3409.2981467048
scalar RSUExampleScenario.node[0].veinsmobility 	totalCO2Emission 	707.51076431263
scalar RSUExampleScenario.node[1].veinsmobility 	startTime 	6.1
scalar RSUExampleScenario.node[1].veinsmobility 	totalTime 	227
scalar RSUExampleScenario.node[1].veinsmobility 	stopTime 	233.2
scalar RSUExampleScenario.node[1].veinsmobility 	minSpeed 	0.25585417865473
scalar RSUExampleScenario.node[1].veinsmobility 	maxSpeed 	18.999736596111
scalar RSUExampleScenario.node[1].veinsmobility 	totalDistance 	3409.2121333974
scalar RSUExampleScenario.node[1].veinsmobility 	totalCO2Emission 	705.45861421316
scalar RSUExampleScenario.node[2].veinsmobility 	startTime 	12.1
scalar RSUExampleScenario.node[2].veinsmobility 	totalTime 	226.8
scalar RSUExampleScenario.node[2].veinsmobility 	stopTime 	239
scalar RSUExampleScenario.node[2].veinsmobility 	minSpeed 	0.25563205053075
scalar RSUExampleScenario.node[2].veinsmobility 	maxSpeed 	18.999945715643
scalar RSUExampleScenario.node[2].veinsmobility 	totalDistance 	3409.6019745492
scalar RSUExampleScenario.node[2].veinsmobility 	totalCO2Emission 	705.71678660752
scalar RSUExampleScenario.node[3].veinsmobility 	startTime 	18.1
scalar RSUExampleScenario.node[3].veinsmobility 	totalTime 	226.8
scalar RSUExampleScenario.node[3].veinsmobility 	stopTime 	245
scalar RSUExampleScenario.node[3].veinsmobility 	minSpeed 	0.2560022441342
scalar RSUExampleScenario.node[3].veinsmobility 	maxSpeed 	18.99985226064
scalar RSUExampleScenario.node[3].veinsmobility 	totalDistance 	3409.1647042721
scalar RSUExampleScenario.node[3].veinsmobility 	totalCO2Emission 	705.23418788634
scalar RSUExampleScenario.node[4].veinsmobility 	startTime 	24.1
scalar RSUExampleScenario.node[4].veinsmobility 	totalTime 	226.7
scalar RSUExampleScenario.node[4].veinsmobility 	stopTime 	250.9
scalar RSUExampleScenario.node[4].veinsmobility 	minSpeed 	0.25334478692082
scalar RSUExampleScenario.node[4].veinsmobility 	maxSpeed 	18.999948175007
scalar RSUExampleScenario.node[4].veinsmobility 	totalDistance 	3409.6547001
scalar RSUExampleScenario.node[4].veinsmobility 	totalCO2Emission 	708.17864145245
scalar RSUExampleScenario.node[5].veinsmobility 	startTime 	30.1
scalar RSUExampleScenario.node[5].veinsmobility 	totalTime 	227.1
scalar RSUExampleScenario.node[5].veinsmobility 	stopTime 	257.3
scalar RSUExampleScenario.node[5].veinsmobility 	minSpeed 	0.25756984317326
scalar RSUExampleScenario.node[5].veinsmobility 	maxSpeed 	18.999665596532
scalar RSUExampleScenario.node[5].veinsmobility 	totalDistance 	3409.3899081484
scalar RSUExampleScenario.node[5].veinsmobility 	totalCO2Emission 	708.13626704592
scalar RSUExampleScenario.node[6].veinsmobility 	startTime 	36.1
scalar RSUExampleScenario.node[6].veinsmobility 	totalTime 	226.8
scalar RSUExampleScenario.node[6].veinsmobility 	stopTime 	263
scalar RSUExampleScenario.node[6].veinsmobility 	minSpeed 	0.252776692193
scalar RSUExampleScenario.node[6].veinsmobility 	maxSpeed 	18.99971155226
scalar RSUExampleScenario.node[6].veinsmobility 	totalDistance 	3409.3410015032
scalar RSUExampleScenario.node[6].veinsmobility 	totalCO2Emission 	706.73001390609
scalar RSUExampleScenario.node[7].veinsmobility 	startTime 	42.1
scalar RSUExampleScenario.node[7].veinsmobility 	totalTime 	226.8
scalar RSUExampleScenario.node[7].veinsmobility 	stopTime 	269
scalar RSUExampleScenario.node[7].veinsmobility 	minSpeed 	0.24962527747662
scalar RSUExampleScenario.node[7].veinsmobility 	maxSpeed 	18.999952864305
scalar RSUExampleScenario.node[7].veinsmobility 	totalDistance 	3409.3783359263
scalar RSUExampleScenario.node[7].veinsmobility 	totalCO2Emission 	704.99498304818
scalar RSUExampleScenario.node[8].veinsmobility 	startTime 	48.1
scalar RSUExampleScenario.node[8].veinsmobility 	totalTime 	226.8
scalar RSUExampleScenario.node[8].veinsmobility 	stopTime 	275
scalar RSUExampleScenario.node[8].veinsmobility 	minSpeed 	0.25231116337003
scalar RSUExampleScenario.node[8].veinsmobility 	maxSpeed 	18.999650788435
scalar RSUExampleScenario.node[8].veinsmobility 	totalDistance 	3409.3782829464
scalar RSUExampleScenario.node[8].veinsmobility 	totalCO2Emission 	709.51700273518
scalar RSUExampleScenario.node[9].veinsmobility 	startTime 	54.1
scalar RSUExampleScenario.node[9].veinsmobility 	totalTime 	226.9
scalar RSUExampleScenario.node[9].veinsmobility 	stopTime 	281.1
scalar RSUExampleScenario.node[9].veinsmobility 	minSpeed 	0.2522132144284
scalar RSUExampleScenario.node[9].veinsmobility 	maxSpeed 	18.999727372669
scalar RSUExampleScenario.node[9].veinsmobility 	totalDistance 	3409.4130631974
scalar RSUExampleScenario.node[9].veinsmobility 	totalCO2Emission 	709.72704635358
scalar RSUExampleScenario.node[10].veinsmobility 	startTime 	60.1
scalar RSUExampleScenario.node[10].veinsmobility 	totalTime 	226.8
scalar RSUExampleScenario.node[10].veinsmobility 	stopTime 	287
scalar RSUExampleScenario.node[10].veinsmobility 	minSpeed 	0.24905959354527
scalar RSUExampleScenario.node[10].veinsmobility 	maxSpeed 	18.999880366188
scalar RSUExampleScenario.node[10].veinsmobility 	totalDistance 	3409.5339233194
scalar RSUExampleScenario.node[10].veinsmobility 	totalCO2Emission 	712.04939708341
scalar RSUExampleScenario.node[11].veinsmobility 	startTime 	66.1
scalar RSUExampleScenario.node[11].veinsmobility 	totalTime 	226.8
scalar RSUExampleScenario.node[11].veinsmobility 	stopTime 	293
scalar RSUExampleScenario.node[11].veinsmobility 	minSpeed 	0.24764556931565
scalar RSUExampleScenario.node[11].veinsmobility 	maxSpeed 	18.99997046656
scalar RSUExampleScenario.node[11].veinsmobility 	totalDistance 	3409.1886006267
scalar RSUExampleScenario.node[11].veinsmobility 	totalCO2Emission 	703.64975953024
scalar RSUExampleScenario.node[12].veinsmobility 	startTime 	72.1
scalar RSUExampleScenario.node[12].veinsmobility 	totalTime 	227
scalar RSUExampleScenario.node[12].veinsmobility 	stopTime 	299.2
scalar RSUExampleScenario.node[12].veinsmobility 	minSpeed 	0.25019811198907
scalar RSUExampleScenario.node[12].veinsmobility 	maxSpeed 	18.999749388481
scalar RSUExampleScenario.node[12].veinsmobility 	totalDistance 	3409.2997348287
scalar RSUExampleScenario.node[12].veinsmobility 	totalCO2Emission 	706.6607464786
scalar RSUExampleScenario.node[13].veinsmobility 	startTime 	78.1
scalar RSUExampleScenario.node[13].veinsmobility 	totalTime 	227.2
scalar RSUExampleScenario.node[13].veinsmobility 	stopTime 	305.4
scalar RSUExampleScenario.node[13].veinsmobility 	minSpeed 	0.24754641968547
scalar RSUExampleScenario.node[13].veinsmobility 	maxSpeed 	18.998486362698
scalar RSUExampleScenario.node[13].veinsmobility 	totalDistance 	3409.7956619061
scalar RSUExampleScenario.node[13].veinsmobility 	totalCO2Emission 	710.41837738698
scalar RSUExampleScenario.node[14].veinsmobility 	startTime 	84.1
scalar RSUExampleScenario.node[14].veinsmobility 	totalTime 	226.9
scalar RSUExampleScenario.node[14].veinsmobility 	stopTime 	311.1
scalar RSUExampleScenario.node[14].veinsmobility 	minSpeed 	0.25539975584508
scalar RSUExampleScenario.node[14].veinsmobility 	maxSpeed 	18.999764403035
scalar RSUExampleScenario.node[14].veinsmobility 	totalDistance 	3409.4970912059
scalar RSUExampleScenario.node[14].veinsmobility 	totalCO2Emission 	709.0873888714
scalar RSUExampleScenario.node[15].veinsmobility 	startTime 	90.1
scalar RSUExampleScenario.node[15].veinsmobility 	totalTime 	226.8
scalar RSUExampleScenario.node[15].veinsmobility 	stopTime 	317
scalar RSUExampleScenario.node[15].veinsmobility 	minSpeed 	0.24780011865729
scalar RSUExampleScenario.node[15].veinsmobility 	maxSpeed 	18.999873803181
scalar RSUExampleScenario.node[15].veinsmobility 	totalDistance 	3409.6299087021
scalar RSUExampleScenario.node[15].veinsmobility 	totalCO2Emission 	707.90896220036
scalar RSUExampleScenario.node[16].veinsmobility 	startTime 	96.1
scalar RSUExampleScenario.node[16].veinsmobility 	totalTime 	226.9
scalar RSUExampleScenario.node[16].veinsmobility 	stopTime 	323.1
scalar RSUExampleScenario.node[16].veinsmobility 	minSpeed 	0.24867860660283
scalar RSUExampleScenario.node[16].veinsmobility 	maxSpeed 	18.999989352026
scalar RSUExampleScenario.node[16].veinsmobility 	totalDistance 	3409.4915670807
scalar RSUExampleScenario.node[16].veinsmobility 	totalCO2Emission 	703.58829448259
scalar RSUExampleScenario.node[17].veinsmobility 	startTime 	102.1
scalar RSUExampleScenario.node[17].veinsmobility 	totalTime 	226.8
scalar RSUExampleScenario.node[17].veinsmobility 	stopTime 	329
scalar RSUExampleScenario.node[17].veinsmobility 	minSpeed 	0.25233640820323
scalar RSUExampleScenario.node[17].veinsmobility 	maxSpeed 	18.999927698504
scalar RSUExampleScenario.node[17].veinsmobility 	totalDistance 	3409.2962464882
scalar RSUExampleScenario.node[17].veinsmobility 	totalCO2Emission 	709.67085714015
scalar RSUExampleScenario.node[18].veinsmobility 	startTime 	108.1
scalar RSUExampleScenario.node[18].veinsmobility 	totalTime 	227
scalar RSUExampleScenario.node[18].veinsmobility 	stopTime 	335.2
scalar RSUExampleScenario.node[18].veinsmobility 	minSpeed 	0.25518164250883
scalar RSUExampleScenario.node[18].veinsmobility 	maxSpeed 	18.999705476689
scalar RSUExampleScenario.node[18].veinsmobility 	totalDistance 	3409.4399144054
scalar RSUExampleScenario.node[18].veinsmobility 	totalCO2Emission 	708.20442378
scalar RSUExampleScenario.node[19].veinsmobility 	startTime 	114.1
scalar RSUExampleScenario.node[19].veinsmobility 	totalTime 	226.7
scalar RSUExampleScenario.node[19].veinsmobility 	stopTime 	340.9
scalar RSUExampleScenario.node[19].veinsmobility 	minSpeed 	0.25009324561455
scalar RSUExampleScenario.node[19].veinsmobility 	maxSpeed 	18.999991753821
scalar RSUExampleScenario.node[19].veinsmobility 	totalDistance 	3409.4667034484
scalar RSUExampleScenario.node[19].veinsmobility 	totalCO2Emission 	708.62123222518
scalar RSUExampleScenario.node[20].veinsmobility 	startTime 	120.1
scalar RSUExampleScenario.node[20].veinsmobility 	totalTime 	226.8
scalar RSUExampleScenario.node[20].veinsmobility 	stopTime 	347
scalar RSUExampleScenario.node[20].veinsmobility 	minSpeed 	0.25311752820411
scalar RSUExampleScenario.node[20].veinsmobility 	maxSpeed 	18.999871899385
scalar RSUExampleScenario.node[20].veinsmobility 	totalDistance 	3409.6170045736
scalar RSUExampleScenario.node[20].veinsmobility 	totalCO2Emission 	707.21398750978
scalar RSUExampleScenario.node[21].veinsmobility 	startTime 	126.1
scalar RSUExampleScenario.node[21].veinsmobility 	totalTime 	226.6
scalar RSUExampleScenario.node[21].veinsmobility 	stopTime 	352.8
scalar RSUExampleScenario.node[21].veinsmobility 	minSpeed 	0.25504723075032
scalar RSUExampleScenario.node[21].veinsmobility 	maxSpeed 	18.99960126729
scalar RSUExampleScenario.node[21].veinsmobility 	totalDistance 	3409.4303607575
scalar RSUExampleScenario.node[21].veinsmobility 	totalCO2Emission 	709.4619659281
scalar RSUExampleScenario.node[22].veinsmobility 	startTime 	132.1
scalar RSUExampleScenario.node[22].veinsmobility 	totalTime 	226.9
scalar RSUExampleScenario.node[22].veinsmobility 	stopTime 	359.1
scalar RSUExampleScenario.node[22].veinsmobility 	minSpeed 	0.25213274772628
scalar RSUExampleScenario.node[22].veinsmobility 	maxSpeed 	18.999961948725
scalar RSUExampleScenario.node[22].veinsmobility 	totalDistance 	3409.4092053649
scalar RSUExampleScenario.node[22].veinsmobility 	totalCO2Emission 	705.84279147945
scalar RSUExampleScenario.node[23].veinsmobility 	startTime 	138.1
scalar RSUExampleScenario.node[23].veinsmobility 	totalTime 	226.8
scalar RSUExampleScenario.node[23].veinsmobility 	stopTime 	365
scalar RSUExampleScenario.node[23].veinsmobility 	minSpeed 	0.25989047143888
scalar RSUExampleScenario.node[23].veinsmobility 	maxSpeed 	18.99980203531
scalar RSUExampleScenario.node[23].veinsmobility 	totalDistance 	3409.6585501312
scalar RSUExampleScenario.node[23].veinsmobility 	totalCO2Emission 	705.99613362167
scalar RSUExampleScenario.node[24].veinsmobility 	startTime 	144.1
scalar RSUExampleScenario.node[24].veinsmobility 	totalTime 	227.1
scalar RSUExampleScenario.node[24].veinsmobility 	stopTime 	371.3
scalar RSUExampleScenario.node[24].veinsmobility 	minSpeed 	0.2503243551543
scalar RSUExampleScenario.node[24].veinsmobility 	maxSpeed 	18.999855814041
scalar RSUExampleScenario.node[24].veinsmobility 	totalDistance 	3409.1469789882
scalar RSUExampleScenario.node[24].veinsmobility 	totalCO2Emission 	705.82593815673
scalar RSUExampleScenario.node[25].veinsmobility 	startTime 	150.1
scalar RSUExampleScenario.node[25].veinsmobility 	totalTime 	226.8
scalar RSUExampleScenario.node[25].veinsmobility 	stopTime 	377
scalar RSUExampleScenario.node[25].veinsmobility 	minSpeed 	0.25015306089213
scalar RSUExampleScenario.node[25].veinsmobility 	maxSpeed 	18.999813267607
scalar RSUExampleScenario.node[25].veinsmobility 	totalDistance 	3409.4145693343
scalar RSUExampleScenario.node[25].veinsmobility 	totalCO2Emission 	710.41997607126
scalar RSUExampleScenario.node[26].veinsmobility 	startTime 	156.1
scalar RSUExampleScenario.node[26].veinsmobility 	totalTime 	227.1
scalar RSUExampleScenario.node[26].veinsmobility 	stopTime 	383.3
scalar RSUExampleScenario.node[26].veinsmobility 	minSpeed 	0.25159708241583
scalar RSUExampleScenario.node[26].veinsmobility 	maxSpeed 	18.999066901566
scalar RSUExampleScenario.node[26].veinsmobility 	totalDistance 	3409.9375214846
scalar RSUExampleScenario.node[26].veinsmobility 	totalCO2Emission 	706.25428137087
scalar RSUExampleScenario.node[27].veinsmobility 	startTime 	162.1
scalar RSUExampleScenario.node[27].veinsmobility 	totalTime 	226.8
scalar RSUExampleScenario.node[27].veinsmobility 	stopTime 	389
scalar RSUExampleScenario.node[27].veinsmobility 	minSpeed 	0.2507073233542
scalar RSUExampleScenario.node[27].veinsmobility 	maxSpeed 	18.999918793754
scalar RSUExampleScenario.node[27].veinsmobility 	totalDistance 	3409.3172268453
scalar RSUExampleScenario.node[27].veinsmobility 	totalCO2Emission 	707.63176184102
scalar RSUExampleScenario.node[28].veinsmobility 	startTime 	168.1
scalar RSUExampleScenario.node[28].veinsmobility 	totalTime 	226.9
scalar RSUExampleScenario.node[28].veinsmobility 	stopTime 	395.1
scalar RSUExampleScenario.node[28].veinsmobility 	minSpeed 	0.25090296148066
scalar RSUExampleScenario.node[28].veinsmobility 	maxSpeed 	18.999471065744
scalar RSUExampleScenario.node[28].veinsmobility 	totalDistance 	3409.4057886585
scalar RSUExampleScenario.node[28].veinsmobility 	totalCO2Emission 	705.80393605685
scalar RSUExampleScenario.node[29].veinsmobility 	startTime 	174.1
scalar RSUExampleScenario.node[29].veinsmobility 	totalTime 	226.9
scalar RSUExampleScenario.node[29].veinsmobility 	stopTime 	401.1
scalar RSUExampleScenario.node[29].veinsmobility 	minSpeed 	0.25447599740815
scalar RSUExampleScenario.node[29].veinsmobility 	maxSpeed 	18.999681049245
scalar RSUExampleScenario.node[29].veinsmobility 	totalDistance 	3409.5227134107
scalar RSUExampleScenario.node[29].veinsmobility 	totalCO2Emission 	709.0724401185
scalar RSUExampleScenario.node[30].veinsmobility 	startTime 	180.1
scalar RSUExampleScenario.node[30].veinsmobility 	totalTime 	226.9
scalar RSUExampleScenario.node[30].veinsmobility 	stopTime 	407.1
scalar RSUExampleScenario.node[30].veinsmobility 	minSpeed 	0.25279243706237
scalar RSUExampleScenario.node[30].veinsmobility 	maxSpeed 	18.9997233236
scalar RSUExampleScenario.node[30].veinsmobility 	totalDistance 	3409.4640300765
scalar RSUExampleScenario.node[30].veinsmobility 	totalCO2Emission 	705.85958511688
scalar RSUExampleScenario.node[31].veinsmobility 	startTime 	186.1
scalar RSUExampleScenario.node[31].veinsmobility 	totalTime 	227
scalar RSUExampleScenario.node[31].veinsmobility 	stopTime 	413.2
scalar RSUExampleScenario.node[31].veinsmobility 	minSpeed 	0.25281176586985
scalar RSUExampleScenario.node[31].veinsmobility 	maxSpeed 	18.999619871869
scalar RSUExampleScenario.node[31].veinsmobility 	totalDistance 	3409.4788303685
scalar RSUExampleScenario.node[31].veinsmobility 	totalCO2Emission 	708.24577051931
scalar RSUExampleScenario.node[32].veinsmobility 	startTime 	192.1
scalar RSUExampleScenario.node[32].veinsmobility 	totalTime 	226.7
scalar RSUExampleScenario.node[32].veinsmobility 	stopTime 	418.9
scalar RSUExampleScenario.node[32].veinsmobility 	minSpeed 	0.24762167117163
scalar RSUExampleScenario.node[32].veinsmobility 	maxSpeed 	18.999788009247
scalar RSUExampleScenario.node[32].veinsmobility 	totalDistance 	3409.6006953752
scalar RSUExampleScenario.node[32].veinsmobility 	totalCO2Emission 	709.09964931564
scalar RSUExampleScenario.node[33].veinsmobility 	startTime 	198.1
scalar RSUExampleScenario.node[33].veinsmobility 	totalTime 	227.1
scalar RSUExampleScenario.node[33].veinsmobility 	stopTime 	425.3
scalar RSUExampleScenario.node[33].veinsmobility 	minSpeed 	0.25946970770461
scalar RSUExampleScenario.node[33].veinsmobility 	maxSpeed 	18.999977767258
scalar RSUExampleScenario.node[33].veinsmobility 	totalDistance 	3409.4182338064
scalar RSUExampleScenario.node[33].veinsmobility 	totalCO2Emission 	706.14774347346
scalar RSUExampleScenario.node[34].veinsmobility 	startTime 	204.1
scalar RSUExampleScenario.node[34].veinsmobility 	totalTime 	226.7
scalar RSUExampleScenario.node[34].veinsmobility 	stopTime 	430.9
scalar RSUExampleScenario.node[34].veinsmobility 	minSpeed 	0.24931770829507
scalar RSUExampleScenario.node[34].veinsmobility 	maxSpeed 	18.999967543883
scalar RSUExampleScenario.node[34].veinsmobility 	totalDistance 	3409.4261787888
scalar RSUExampleScenario.node[34].veinsmobility 	totalCO2Emission 	706.08254545363
scalar RSUExampleScenario.node[35].veinsmobility 	startTime 	210.1
scalar RSUExampleScenario.node[35].veinsmobility 	totalTime 	226.8
scalar RSUExampleScenario.node[35].veinsmobility 	stopTime 	437
scalar RSUExampleScenario.node[35].veinsmobility 	minSpeed 	0.24741423275089
scalar RSUExampleScenario.node[35].veinsmobility 	maxSpeed 	18.999556066415
scalar RSUExampleScenario.node[35].veinsmobility 	totalDistance 	3409.1645769094
scalar RSUExampleScenario.node[35].veinsmobility 	totalCO2Emission 	709.90911750054
scalar RSUExampleScenario.node[36].veinsmobility 	startTime 	216.1
scalar RSUExampleScenario.node[36].veinsmobility 	totalTime 	227
scalar RSUExampleScenario.node[36].veinsmobility 	stopTime 	443.2
scalar RSUExampleScenario.node[36].veinsmobility 	minSpeed 	0.25470507662301
scalar RSUExampleScenario.node[36].veinsmobility 	maxSpeed 	18.99996689515
scalar RSUExampleScenario.node[36].veinsmobility 	totalDistance 	3409.3994447422
scalar RSUExampleScenario.node[36].veinsmobility 	totalCO2Emission 	711.28001456027
scalar RSUExampleScenario.node[37].veinsmobility 	startTime 	222.1
scalar RSUExampleScenario.node[37].veinsmobility 	totalTime 	226.8
scalar RSUExampleScenario.node[37].veinsmobility 	stopTime 	449
scalar RSUExampleScenario.node[37].veinsmobility 	minSpeed 	0.25823852351401
scalar RSUExampleScenario.node[37].veinsmobility 	maxSpeed 	18.999881565436
scalar RSUExampleScenario.node[37].veinsmobility 	totalDistance 	3409.564450651
scalar RSUExampleScenario.node[37].veinsmobility 	totalCO2Emission 	704.63276668371
scalar RSUExampleScenario.node[38].veinsmobility 	startTime 	228.1
scalar RSUExampleScenario.node[38].veinsmobility 	totalTime 	226.8
scalar RSUExampleScenario.node[38].veinsmobility 	stopTime 	455
scalar RSUExampleScenario.node[38].veinsmobility 	minSpeed 	0.25763159220875
scalar RSUExampleScenario.node[38].veinsmobility 	maxSpeed 	18.999810865177
scalar RSUExampleScenario.node[38].veinsmobility 	totalDistance 	3409.1402331898
scalar RSUExampleScenario.node[38].veinsmobility 	totalCO2Emission 	705.18035351869
scalar RSUExampleScenario.node[39].veinsmobility 	startTime 	234.1
scalar RSUExampleScenario.node[39].veinsmobility 	totalTime 	227
scalar RSUExampleScenario.node[39].veinsmobility 	stopTime 	461.2
scalar RSUExampleScenario.node[39].veinsmobility 	minSpeed 	0.25944629201107
scalar RSUExampleScenario.node[39].veinsmobility 	maxSpeed 	18.99983942877
scalar RSUExampleScenario.node[39].veinsmobility 	totalDistance 	3409.4785376691
scalar RSUExampleScenario.node[39].veinsmobility 	totalCO2Emission 	705.97067656868
scalar RSUExampleScenario.node[40].veinsmobility 	startTime 	240.1
scalar RSUExampleScenario.node[40].veinsmobility 	totalTime 	226.8
scalar RSUExampleScenario.node[40].veinsmobility 	stopTime 	467
scalar RSUExampleScenario.node[40].veinsmobility 	minSpeed 	0.25354457091354
scalar RSUExampleScenario.node[40].veinsmobility 	maxSpeed 	18.999865135369
scalar RSUExampleScenario.node[40].veinsmobility 	totalDistance 	3409.3493443989
scalar RSUExampleScenario.node[40].veinsmobility 	totalCO2Emission 	711.01224789192
scalar RSUExampleScenario.node[41].veinsmobility 	startTime 	246.1
scalar RSUExampleScenario.node[41].veinsmobility 	totalTime 	226.8
scalar RSUExampleScenario.node[41].veinsmobility 	stopTime 	473
scalar RSUExampleScenario.node[41].veinsmobility 	minSpeed 	0.25854884195467
scalar RSUExampleScenario.node[41].veinsmobility 	maxSpeed 	18.999889685065
scalar RSUExampleScenario.node[41].veinsmobility 	totalDistance 	3409.7445371248
scalar RSUExampleScenario.node[41].veinsmobility 	totalCO2Emission 	708.1517023533
scalar RSUExampleScenario.node[42].veinsmobility 	startTime 	252.1
scalar RSUExampleScenario.node[42].veinsmobility 	totalTime 	227.1
scalar RSUExampleScenario.node[42].veinsmobility 	stopTime 	479.3
scalar RSUExampleScenario.node[42].veinsmobility 	minSpeed 	0.25609912355058
scalar RSUExampleScenario.node[42].veinsmobility 	maxSpeed 	18.999948409402
scalar RSUExampleScenario.node[42].veinsmobility 	totalDistance 	3409.1563227274
scalar RSUExampleScenario.node[42].veinsmobility 	totalCO2Emission 	709.79244796202
scalar RSUExampleScenario.node[43].veinsmobility 	startTime 	258.1
scalar RSUExampleScenario.node[43].veinsmobility 	totalTime 	226.9
scalar RSUExampleScenario.node[43].veinsmobility 	stopTime 	485.1
scalar RSUExampleScenario.node[43].veinsmobility 	minSpeed 	0.25055509522487
scalar RSUExampleScenario.node[43].veinsmobility 	maxSpeed 	18.999357787513
scalar RSUExampleScenario.node[43].veinsmobility 	totalDistance 	3409.439005924
scalar RSUExampleScenario.node[43].veinsmobility 	totalCO2Emission 	704.91523079298
scalar RSUExampleScenario.node[44].veinsmobility 	startTime 	264.1
scalar RSUExampleScenario.node[44].veinsmobility 	totalTime 	226.9
scalar RSUExampleScenario.node[44].veinsmobility 	stopTime 	491.1
scalar RSUExampleScenario.node[44].veinsmobility 	minSpeed 	0.25402979006781
scalar RSUExampleScenario.node[44].veinsmobility 	maxSpeed 	18.999549701361
scalar RSUExampleScenario.node[44].veinsmobility 	totalDistance 	3409.6729704476
scalar RSUExampleScenario.node[44].veinsmobility 	totalCO2Emission 	705.01153089955
scalar RSUExampleScenario.node[45].veinsmobility 	startTime 	270.1
scalar RSUExampleScenario.node[45].veinsmobility 	totalTime 	226.8
scalar RSUExampleScenario.node[45].veinsmobility 	stopTime 	497
scalar RSUExampleScenario.node[45].veinsmobility 	minSpeed 	0.2507755089975
scalar RSUExampleScenario.node[45].veinsmobility 	maxSpeed 	18.999837726287
scalar RSUExampleScenario.node[45].veinsmobility 	totalDistance 	3409.5000130118
scalar RSUExampleScenario.node[45].veinsmobility 	totalCO2Emission 	708.4664784553
scalar RSUExampleScenario.node[46].veinsmobility 	startTime 	276.1
scalar RSUExampleScenario.node[46].veinsmobility 	totalTime 	226.7
scalar RSUExampleScenario.node[46].veinsmobility 	stopTime 	502.9
scalar RSUExampleScenario.node[46].veinsmobility 	minSpeed 	0.25314335097419
scalar RSUExampleScenario.node[46].veinsmobility 	maxSpeed 	18.999946423005
scalar RSUExampleScenario.node[46].veinsmobility 	totalDistance 	3409.1802152515
scalar RSUExampleScenario.node[46].veinsmobility 	totalCO2Emission 	707.66923053112
scalar RSUExampleScenario.node[47].veinsmobility 	startTime 	282.1
scalar RSUExampleScenario.node[47].veinsmobility 	totalTime 	227
scalar RSUExampleScenario.node[47].veinsmobility 	stopTime 	509.2
scalar RSUExampleScenario.node[47].veinsmobility 	minSpeed 	0.24726149460603
scalar RSUExampleScenario.node[47].veinsmobility 	maxSpeed 	18.999901579777
scalar RSUExampleScenario.node[47].veinsmobility 	totalDistance 	3409.3216926329
scalar RSUExampleScenario.node[47].veinsmobility 	totalCO2Emission 	704.40522807641
scalar RSUExampleScenario.node[48].veinsmobility 	startTime 	288.1
scalar RSUExampleScenario.node[48].veinsmobility 	totalTime 	227.1
scalar RSUExampleScenario.node[48].veinsmobility 	stopTime 	515.3
scalar RSUExampleScenario.node[48].veinsmobility 	minSpeed 	0.25035296187061
scalar RSUExampleScenario.node[48].veinsmobility 	maxSpeed 	18.999895290544
scalar RSUExampleScenario.node[48].veinsmobility 	totalDistance 	3409.3494593031
scalar RSUExampleScenario.node[48].veinsmobility 	totalCO2Emission 	706.45059387439
scalar RSUExampleScenario.node[49].veinsmobility 	startTime 	294.1
scalar RSUExampleScenario.node[49].veinsmobility 	totalTime 	226.9
scalar RSUExampleScenario.node[49].veinsmobility 	stopTime 	521.1
scalar RSUExampleScenario.node[49].veinsmobility 	minSpeed 	0.2517166794946
scalar RSUExampleScenario.node[49].veinsmobility 	maxSpeed 	18.999895372509
scalar RSUExampleScenario.node[49].veinsmobility 	totalDistance 	3409.2416860187
scalar RSUExampleScenario.node[49].veinsmobility 	totalCO2Emission 	709.21423383291
scalar RSUExampleScenario.node[50].veinsmobility 	startTime 	300.1
scalar RSUExampleScenario.node[50].veinsmobility 	totalTime 	226.7
scalar RSUExampleScenario.node[50].veinsmobility 	stopTime 	526.9
scalar RSUExampleScenario.node[50].veinsmobility 	minSpeed 	0.25446741202171
scalar RSUExampleScenario.node[50].veinsmobility 	maxSpeed 	18.999727043565
scalar RSUExampleScenario.node[50].veinsmobility 	totalDistance 	3409.2661853472
scalar RSUExampleScenario.node[50].veinsmobility 	totalCO2Emission 	704.04351835376
scalar RSUExampleScenario.node[51].veinsmobility 	startTime 	306.1
scalar RSUExampleScenario.node[51].veinsmobility 	totalTime 	227.1
scalar RSUExampleScenario.node[51].veinsmobility 	stopTime 	533.3
scalar RSUExampleScenario.node[51].veinsmobility 	minSpeed 	0.25938431417686
scalar RSUExampleScenario.node[51].veinsmobility 	maxSpeed 	18.999979895491
scalar RSUExampleScenario.node[51].veinsmobility 	totalDistance 	3410.1027197125
scalar RSUExampleScenario.node[51].veinsmobility 	totalCO2Emission 	713.04350867552
scalar RSUExampleScenario.node[52].veinsmobility 	startTime 	312.1
scalar RSUExampleScenario.node[52].veinsmobility 	totalTime 	227
scalar RSUExampleScenario.node[52].veinsmobility 	stopTime 	539.2
scalar RSUExampleScenario.node[52].veinsmobility 	minSpeed 	0.25362880499288
scalar RSUExampleScenario.node[52].veinsmobility 	maxSpeed 	18.999919310822
scalar RSUExampleScenario.node[52].veinsmobility 	totalDistance 	3409.7443926769
scalar RSUExampleScenario.node[52].veinsmobility 	totalCO2Emission 	707.41264038037
scalar RSUExampleScenario.node[53].veinsmobility 	startTime 	318.1
scalar RSUExampleScenario.node[53].veinsmobility 	totalTime 	227
scalar RSUExampleScenario.node[53].veinsmobility 	stopTime 	545.2
scalar RSUExampleScenario.node[53].veinsmobility 	minSpeed 	0.25486749264691
scalar RSUExampleScenario.node[53].veinsmobility 	maxSpeed 	18.999891590767
scalar RSUExampleScenario.node[53].veinsmobility 	totalDistance 	3409.2268585749
scalar RSUExampleScenario.node[53].veinsmobility 	totalCO2Emission 	704.13751608844
scalar RSUExampleScenario.node[54].veinsmobility 	startTime 	324.1
scalar RSUExampleScenario.node[54].veinsmobility 	totalTime 	226.8
scalar RSUExampleScenario.node[54].veinsmobility 	stopTime 	551
scalar RSUExampleScenario.node[54].veinsmobility 	minSpeed 	0.24924807753717
scalar RSUExampleScenario.node[54].veinsmobility 	maxSpeed 	18.999977881883
scalar RSUExampleScenario.node[54].veinsmobility 	totalDistance 	3409.5416363861
scalar RSUExampleScenario.node[54].veinsmobility 	totalCO2Emission 	712.80744852771
scalar RSUExampleScenario.node[55].veinsmobility 	startTime 	330.1
scalar RSUExampleScenario.node[55].veinsmobility 	totalTime 	226.7
scalar RSUExampleScenario.node[55].veinsmobility 	stopTime 	556.9
scalar RSUExampleScenario.node[55].veinsmobility 	minSpeed 	0.25963807590026
scalar RSUExampleScenario.node[55].veinsmobility 	maxSpeed 	18.999756084061
scalar RSUExampleScenario.node[55].veinsmobility 	totalDistance 	3409.3698393831
scalar RSUExampleScenario.node[55].veinsmobility 	totalCO2Emission 	707.80444514395
scalar RSUExampleScenario.node[56].veinsmobility 	startTime 	336.1
scalar RSUExampleScenario.node[56].veinsmobility 	totalTime 	226.9
scalar RSUExampleScenario.node[56].veinsmobility 	stopTime 	563.1
scalar RSUExampleScenario.node[56].veinsmobility 	minSpeed 	0.25080019926676
scalar RSUExampleScenario.node[56].veinsmobility 	maxSpeed 	18.999730076478
scalar RSUExampleScenario.node[56].veinsmobility 	totalDistance 	3409.5387651164
scalar RSUExampleScenario.node[56].veinsmobility 	totalCO2Emission 	708.07639664421
scalar RSUExampleScenario.node[57].veinsmobility 	startTime 	342.1
scalar RSUExampleScenario.node[57].veinsmobility 	totalTime 	226.6
scalar RSUExampleScenario.node[57].veinsmobility 	stopTime 	568.8
scalar RSUExampleScenario.node[57].veinsmobility 	minSpeed 	0.25180260547553
scalar RSUExampleScenario.node[57].veinsmobility 	maxSpeed 	18.99944115005
scalar RSUExampleScenario.node[57].veinsmobility 	totalDistance 	3409.5521004239
scalar RSUExampleScenario.node[57].veinsmobility 	totalCO2Emission 	708.93421021549
scalar RSUExampleScenario.node[58].veinsmobility 	startTime 	348.1
scalar RSUExampleScenario.node[58].veinsmobility 	totalTime 	227.2
scalar RSUExampleScenario.node[58].veinsmobility 	stopTime 	575.4
scalar RSUExampleScenario.node[58].veinsmobility 	minSpeed 	0.25670952257398
scalar RSUExampleScenario.node[58].veinsmobility 	maxSpeed 	18.999962484711
scalar RSUExampleScenario.node[58].veinsmobility 	totalDistance 	3409.2076041946
scalar RSUExampleScenario.node[58].veinsmobility 	totalCO2Emission 	710.18081472671
scalar RSUExampleScenario.node[59].veinsmobility 	startTime 	354.1
scalar RSUExampleScenario.node[59].veinsmobility 	totalTime 	227
scalar RSUExampleScenario.node[59].veinsmobility 	stopTime 	581.2
scalar RSUExampleScenario.node[59].veinsmobility 	minSpeed 	0.24916759392433
scalar RSUExampleScenario.node[59].veinsmobility 	maxSpeed 	18.999949271616
scalar RSUExampleScenario.node[59].veinsmobility 	totalDistance 	3409.7945162043
scalar RSUExampleScenario.node[59].veinsmobility 	totalCO2Emission 	705.23528150895
scalar RSUExampleScenario.node[60].veinsmobility 	startTime 	360.1
scalar RSUExampleScenario.node[60].veinsmobility 	totalTime 	226.9
scalar RSUExampleScenario.node[60].veinsmobility 	stopTime 	587.1
scalar RSUExampleScenario.node[60].veinsmobility 	minSpeed 	0.2485377766788
scalar RSUExampleScenario.node[60].veinsmobility 	maxSpeed 	18.999977746101
scalar RSUExampleScenario.node[60].veinsmobility 	totalDistance 	3409.6558233863
scalar RSUExampleScenario.node[60].veinsmobility 	totalCO2Emission 	709.37495967309
scalar RSUExampleScenario.node[61].veinsmobility 	startTime 	366.1
scalar RSUExampleScenario.node[61].veinsmobility 	totalTime 	226.9
scalar RSUExampleScenario.node[61].veinsmobility 	stopTime 	593.1
scalar RSUExampleScenario.node[61].veinsmobility 	minSpeed 	0.25288500761334
scalar RSUExampleScenario.node[61].veinsmobility 	maxSpeed 	18.999777533801
scalar RSUExampleScenario.node[61].veinsmobility 	totalDistance 	3409.0328009693
scalar RSUExampleScenario.node[61].veinsmobility 	totalCO2Emission 	711.57209161069
scalar RSUExampleScenario.node[62].veinsmobility 	startTime 	372.1
scalar RSUExampleScenario.node[62].veinsmobility 	totalTime 	226.9
scalar RSUExampleScenario.node[62].veinsmobility 	stopTime 	599.1
scalar RSUExampleScenario.node[62].veinsmobility 	minSpeed 	0.2500913621923
scalar RSUExampleScenario.node[62].veinsmobility 	maxSpeed 	18.999431553495
scalar RSUExampleScenario.node[62].veinsmobility 	totalDistance 	3409.3962250876
scalar RSUExampleScenario.node[62].veinsmobility 	totalCO2Emission 	706.78353915607
scalar RSUExampleScenario.node[63].veinsmobility 	startTime 	378.1
scalar RSUExampleScenario.node[63].veinsmobility 	totalTime 	226.8
scalar RSUExampleScenario.node[63].veinsmobility 	stopTime 	605
scalar RSUExampleScenario.node[63].veinsmobility 	minSpeed 	0.25244030272122
scalar RSUExampleScenario.node[63].veinsmobility 	maxSpeed 	18.999807482851
scalar RSUExampleScenario.node[63].veinsmobility 	totalDistance 	3409.4696925213
scalar RSUExampleScenario.node[63].veinsmobility 	totalCO2Emission 	705.63104764448
scalar RSUExampleScenario.node[64].veinsmobility 	startTime 	384.1
scalar RSUExampleScenario.node[64].veinsmobility 	totalTime 	226.7
scalar RSUExampleScenario.node[64].veinsmobility 	stopTime 	610.9
scalar RSUExampleScenario.node[64].veinsmobility 	minSpeed 	0.25868405564222
scalar RSUExampleScenario.node[64].veinsmobility 	maxSpeed 	18.999983101112
scalar RSUExampleScenario.node[64].veinsmobility 	totalDistance 	3409.5004725993
scalar RSUExampleScenario.node[64].veinsmobility 	totalCO2Emission 	707.11989166506
scalar RSUExampleScenario.node[65].veinsmobility 	startTime 	390.1
scalar RSUExampleScenario.node[65].veinsmobility 	totalTime 	226.9
scalar RSUExampleScenario.node[65].veinsmobility 	stopTime 	617.1
scalar RSUExampleScenario.node[65].veinsmobility 	minSpeed 	0.25712593535823
scalar RSUExampleScenario.node[65].veinsmobility 	maxSpeed 	18.999663784478
scalar RSUExampleScenario.node[65].veinsmobility 	totalDistance 	3409.2306758085
scalar RSUExampleScenario.node[65].veinsmobility 	totalCO2Emission 	707.29808582911
scalar RSUExampleScenario.node[66].veinsmobility 	startTime 	396.1
scalar RSUExampleScenario.node[66].veinsmobility 	totalTime 	226.7
scalar RSUExampleScenario.node[66].veinsmobility 	stopTime 	622.9
scalar RSUExampleScenario.node[66].veinsmobility 	minSpeed 	0.25666046652338
scalar RSUExampleScenario.node[66].veinsmobility 	maxSpeed 	18.999992839079
scalar RSUExampleScenario.node[66].veinsmobility 	totalDistance 	3409.1588084574
scalar RSUExampleScenario.node[66].veinsmobility 	totalCO2Emission 	709.0493274685
scalar RSUExampleScenario.node[67].veinsmobility 	startTime 	402.1
scalar RSUExampleScenario.node[67].veinsmobility 	totalTime 	227
scalar RSUExampleScenario.node[67].veinsmobility 	stopTime 	629.2
scalar RSUExampleScenario.node[67].veinsmobility 	minSpeed 	0.24848979458469
scalar RSUExampleScenario.node[67].veinsmobility 	maxSpeed 	18.999816453978
scalar RSUExampleScenario.node[67].veinsmobility 	totalDistance 	3409.2777196215
scalar RSUExampleScenario.node[67].veinsmobility 	totalCO2Emission 	705.79976610466
scalar RSUExampleScenario.node[68].veinsmobility 	startTime 	408.1
scalar RSUExampleScenario.node[68].veinsmobility 	totalTime 	226.9
scalar RSUExampleScenario.node[68].veinsmobility 	stopTime 	635.1
scalar RSUExampleScenario.node[68].veinsmobility 	minSpeed 	0.2572237435265
scalar RSUExampleScenario.node[68].veinsmobility 	maxSpeed 	18.99971467522
scalar RSUExampleScenario.node[68].veinsmobility 	totalDistance 	3409.6018349521
scalar RSUExampleScenario.node[68].veinsmobility 	totalCO2Emission 	704.34879889719
scalar RSUExampleScenario.node[69].veinsmobility 	startTime 	414.1
scalar RSUExampleScenario.node[69].veinsmobility 	totalTime 	226.6
scalar RSUExampleScenario.node[69].veinsmobility 	stopTime 	640.8
scalar RSUExampleScenario.node[69].veinsmobility 	minSpeed 	0.25083776875678
scalar RSUExampleScenario.node[69].veinsmobility 	maxSpeed 	18.999973312083
scalar RSUExampleScenario.node[69].veinsmobility 	totalDistance 	3409.694898286
scalar RSUExampleScenario.node[69].veinsmobility 	totalCO2Emission 	705.90688688399
scalar RSUExampleScenario.node[70].veinsmobility 	startTime 	420.1
scalar RSUExampleScenario.node[70].veinsmobility 	totalTime 	226.4
scalar RSUExampleScenario.node[70].veinsmobility 	stopTime 	646.6
scalar RSUExampleScenario.node[70].veinsmobility 	minSpeed 	0.25535447606142
scalar RSUExampleScenario.node[70].veinsmobility 	maxSpeed 	18.999753160628
scalar RSUExampleScenario.node[70].veinsmobility 	totalDistance 	3409.1706763518
scalar RSUExampleScenario.node[70].veinsmobility 	totalCO2Emission 	703.33324685869
scalar RSUExampleScenario.node[71].veinsmobility 	startTime 	426.1
scalar RSUExampleScenario.node[71].veinsmobility 	totalTime 	227.1
scalar RSUExampleScenario.node[71].veinsmobility 	stopTime 	653.3
scalar RSUExampleScenario.node[71].veinsmobility 	minSpeed 	0.24728018875746
scalar RSUExampleScenario.node[71].veinsmobility 	maxSpeed 	18.999981007325
scalar RSUExampleScenario.node[71].veinsmobility 	totalDistance 	3409.6088823235
scalar RSUExampleScenario.node[71].veinsmobility 	totalCO2Emission 	709.0095515701
scalar RSUExampleScenario.node[72].veinsmobility 	startTime 	432.1
scalar RSUExampleScenario.node[72].veinsmobility 	totalTime 	226.9
scalar RSUExampleScenario.node[72].veinsmobility 	stopTime 	659.1
scalar RSUExampleScenario.node[72].veinsmobility 	minSpeed 	0.25031287070643
scalar RSUExampleScenario.node[72].veinsmobility 	maxSpeed 	18.999941243245
scalar RSUExampleScenario.node[72].veinsmobility 	totalDistance 	3409.4753943872
scalar RSUExampleScenario.node[72].veinsmobility 	totalCO2Emission 	706.93370386159
scalar RSUExampleScenario.node[73].veinsmobility 	startTime 	438.1
scalar RSUExampleScenario.node[73].veinsmobility 	totalTime 	227
scalar RSUExampleScenario.node[73].veinsmobility 	stopTime 	665.2
scalar RSUExampleScenario.node[73].veinsmobility 	minSpeed 	0.24951902448945
scalar RSUExampleScenario.node[73].veinsmobility 	maxSpeed 	18.999529973657
scalar RSUExampleScenario.node[73].veinsmobility 	totalDistance 	3410.0055441015
scalar RSUExampleScenario.node[73].veinsmobility 	totalCO2Emission 	706.81517325162
scalar RSUExampleScenario.node[74].veinsmobility 	startTime 	444.1
scalar RSUExampleScenario.node[74].veinsmobility 	totalTime 	226.8
scalar RSUExampleScenario.node[74].veinsmobility 	stopTime 	671
scalar RSUExampleScenario.node[74].veinsmobility 	minSpeed 	0.2509447938439
scalar RSUExampleScenario.node[74].veinsmobility 	maxSpeed 	18.99995156605
scalar RSUExampleScenario.node[74].veinsmobility 	totalDistance 	3409.5994895413
scalar RSUExampleScenario.node[74].veinsmobility 	totalCO2Emission 	707.25515075656
scalar RSUExampleScenario.node[75].veinsmobility 	startTime 	450.1
scalar RSUExampleScenario.node[75].veinsmobility 	totalTime 	227.2
scalar RSUExampleScenario.node[75].veinsmobility 	stopTime 	677.4
scalar RSUExampleScenario.node[75].veinsmobility 	minSpeed 	0.25393719377695
scalar RSUExampleScenario.node[75].veinsmobility 	maxSpeed 	18.999696652603
scalar RSUExampleScenario.node[75].veinsmobility 	totalDistance 	3409.6041104372
scalar RSUExampleScenario.node[75].veinsmobility 	totalCO2Emission 	706.89677623532
scalar RSUExampleScenario.node[76].veinsmobility 	startTime 	456.1
scalar RSUExampleScenario.node[76].veinsmobility 	totalTime 	226.8
scalar RSUExampleScenario.node[76].veinsmobility 	stopTime 	683
scalar RSUExampleScenario.node[76].veinsmobility 	minSpeed 	0.25052367615281
scalar RSUExampleScenario.node[76].veinsmobility 	maxSpeed 	18.999737308014
scalar RSUExampleScenario.node[76].veinsmobility 	totalDistance 	3409.6107180277
scalar RSUExampleScenario.node[76].veinsmobility 	totalCO2Emission 	704.43106922158
scalar RSUExampleScenario.node[77].veinsmobility 	startTime 	462.1
scalar RSUExampleScenario.node[77].veinsmobility 	totalTime 	227
scalar RSUExampleScenario.node[77].veinsmobility 	stopTime 	689.2
scalar RSUExampleScenario.node[77].veinsmobility 	minSpeed 	0.25661568850419
scalar RSUExampleScenario.node[77].veinsmobility 	maxSpeed 	18.99980375214
scalar RSUExampleScenario.node[77].veinsmobility 	totalDistance 	3409.9735428597
scalar RSUExampleScenario.node[77].veinsmobility 	totalCO2Emission 	708.60527350671
scalar RSUExampleScenario.node[78].veinsmobility 	startTime 	468.1
scalar RSUExampleScenario.node[78].veinsmobility 	totalTime 	227.2
scalar RSUExampleScenario.node[78].veinsmobility 	stopTime 	695.4
scalar RSUExampleScenario.node[78].veinsmobility 	minSpeed 	0.24950363931269
scalar RSUExampleScenario.node[78].veinsmobility 	maxSpeed 	18.999563740983
scalar RSUExampleScenario.node[78].veinsmobility 	totalDistance 	3409.3941769087
scalar RSUExampleScenario.node[78].veinsmobility 	totalCO2Emission 	708.16688060468
scalar RSUExampleScenario.node[79].veinsmobility 	startTime 	474.1
scalar RSUExampleScenario.node[79].veinsmobility 	totalTime 	227.1
scalar RSUExampleScenario.node[79].veinsmobility 	stopTime 	701.3
scalar RSUExampleScenario.node[79].veinsmobility 	minSpeed 	0.25186365397065
scalar RSUExampleScenario.node[79].veinsmobility 	maxSpeed 	18.999868766952
scalar RSUExampleScenario.node[79].veinsmobility 	totalDistance 	3409.870682781
scalar RSUExampleScenario.node[79].veinsmobility 	totalCO2Emission 	707.42945232858
scalar RSUExampleScenario.node[80].veinsmobility 	startTime 	480.1
scalar RSUExampleScenario.node[80].veinsmobility 	totalTime 	227.1
scalar RSUExampleScenario.node[80].veinsmobility 	stopTime 	707.3
scalar RSUExampleScenario.node[80].veinsmobility 	minSpeed 	0.24999412898254
scalar RSUExampleScenario.node[80].veinsmobility 	maxSpeed 	18.999956145021
scalar RSUExampleScenario.node[80].veinsmobility 	totalDistance 	3409.4371904939
scalar RSUExampleScenario.node[80].veinsmobility 	totalCO2Emission 	710.16623497952
scalar RSUExampleScenario.node[81].veinsmobility 	startTime 	486.1
scalar RSUExampleScenario.node[81].veinsmobility 	totalTime 	227
scalar RSUExampleScenario.node[81].veinsmobility 	stopTime 	713.2
scalar RSUExampleScenario.node[81].veinsmobility 	minSpeed 	0.25772421344952
scalar RSUExampleScenario.node[81].veinsmobility 	maxSpeed 	18.999878146183
scalar RSUExampleScenario.node[81].veinsmobility 	totalDistance 	3409.7615883913
scalar RSUExampleScenario.node[81].veinsmobility 	totalCO2Emission 	709.43097988266
scalar RSUExampleScenario.node[82].veinsmobility 	startTime 	492.1
scalar RSUExampleScenario.node[82].veinsmobility 	totalTime 	227
scalar RSUExampleScenario.node[82].veinsmobility 	stopTime 	719.2
scalar RSUExampleScenario.node[82].veinsmobility 	minSpeed 	0.2583569575334
scalar RSUExampleScenario.node[82].veinsmobility 	maxSpeed 	18.9999263833
scalar RSUExampleScenario.node[82].veinsmobility 	totalDistance 	3409.5652925671
scalar RSUExampleScenario.node[82].veinsmobility 	totalCO2Emission 	707.52982594232
scalar RSUExampleScenario.node[83].veinsmobility 	startTime 	498.1
scalar RSUExampleScenario.node[83].veinsmobility 	totalTime 	227.3
scalar RSUExampleScenario.node[83].veinsmobility 	stopTime 	725.5
scalar RSUExampleScenario.node[83].veinsmobility 	minSpeed 	0.25767927157762
scalar RSUExampleScenario.node[83].veinsmobility 	maxSpeed 	18.999722995071
scalar RSUExampleScenario.node[83].veinsmobility 	totalDistance 	3409.5194626784
scalar RSUExampleScenario.node[83].veinsmobility 	totalCO2Emission 	705.99040207242
scalar RSUExampleScenario.node[84].veinsmobility 	startTime 	504.1
scalar RSUExampleScenario.node[84].veinsmobility 	totalTime 	226.5
scalar RSUExampleScenario.node[84].veinsmobility 	stopTime 	730.7
scalar RSUExampleScenario.node[84].veinsmobility 	minSpeed 	0.24844955426292
scalar RSUExampleScenario.node[84].veinsmobility 	maxSpeed 	18.999725281242
scalar RSUExampleScenario.node[84].veinsmobility 	totalDistance 	3409.040265558
scalar RSUExampleScenario.node[84].veinsmobility 	totalCO2Emission 	705.55558052535
scalar RSUExampleScenario.node[85].veinsmobility 	startTime 	510.1
scalar RSUExampleScenario.node[85].veinsmobility 	totalTime 	226.7
scalar RSUExampleScenario.node[85].veinsmobility 	stopTime 	736.9
scalar RSUExampleScenario.node[85].veinsmobility 	minSpeed 	0.24943424819852
scalar RSUExampleScenario.node[85].veinsmobility 	maxSpeed 	18.999638827981
scalar RSUExampleScenario.node[85].veinsmobility 	totalDistance 	3409.249445057
scalar RSUExampleScenario.node[85].veinsmobility 	totalCO2Emission 	709.6799342334
scalar RSUExampleScenario.node[86].veinsmobility 	startTime 	516.1
scalar RSUExampleScenario.node[86].veinsmobility 	totalTime 	226.7
scalar RSUExampleScenario.node[86].veinsmobility 	stopTime 	742.9
scalar RSUExampleScenario.node[86].veinsmobility 	minSpeed 	0.2471742358834
scalar RSUExampleScenario.node[86].veinsmobility 	maxSpeed 	18.99997192808
scalar RSUExampleScenario.node[86].veinsmobility 	totalDistance 	3409.3357328707
scalar RSUExampleScenario.node[86].veinsmobility 	totalCO2Emission 	701.3535303031
scalar RSUExampleScenario.node[87].veinsmobility 	startTime 	522.1
scalar RSUExampleScenario.node[87].veinsmobility 	totalTime 	226.6
scalar RSUExampleScenario.node[87].veinsmobility 	stopTime 	748.8
scalar RSUExampleScenario.node[87].veinsmobility 	minSpeed 	0.24825276159146
scalar RSUExampleScenario.node[87].veinsmobility 	maxSpeed 	18.99994726494
scalar RSUExampleScenario.node[87].veinsmobility 	totalDistance 	3409.4846043302
scalar RSUExampleScenario.node[87].veinsmobility 	totalCO2Emission 	704.80277592356
scalar RSUExampleScenario.node[88].veinsmobility 	startTime 	528.1
scalar RSUExampleScenario.node[88].veinsmobility 	totalTime 	226.7
scalar RSUExampleScenario.node[88].veinsmobility 	stopTime 	754.9
scalar RSUExampleScenario.node[88].veinsmobility 	minSpeed 	0.25300510746147
scalar RSUExampleScenario.node[88].veinsmobility 	maxSpeed 	18.999866848476
scalar RSUExampleScenario.node[88].veinsmobility 	totalDistance 	3409.6856424172
scalar RSUExampleScenario.node[88].veinsmobility 	totalCO2Emission 	710.62632007616
scalar RSUExampleScenario.node[89].veinsmobility 	startTime 	534.1
scalar RSUExampleScenario.node[89].veinsmobility 	totalTime 	226.9
scalar RSUExampleScenario.node[89].veinsmobility 	stopTime 	761.1
scalar RSUExampleScenario.node[89].veinsmobility 	minSpeed 	0.25666947084898
scalar RSUExampleScenario.node[89].veinsmobility 	maxSpeed 	18.999826952156
scalar RSUExampleScenario.node[89].veinsmobility 	totalDistance 	3409.2029346504
scalar RSUExampleScenario.node[89].veinsmobility 	totalCO2Emission 	708.07699781672
scalar RSUExampleScenario.node[90].veinsmobility 	startTime 	540.1
scalar RSUExampleScenario.node[90].veinsmobility 	totalTime 	226.8
scalar RSUExampleScenario.node[90].veinsmobility 	stopTime 	767
scalar RSUExampleScenario.node[90].veinsmobility 	minSpeed 	0.25066553348117
scalar RSUExampleScenario.node[90].veinsmobility 	maxSpeed 	18.999541751717
scalar RSUExampleScenario.node[90].veinsmobility 	totalDistance 	3409.807013099
scalar RSUExampleScenario.node[90].veinsmobility 	totalCO2Emission 	708.15546872118
scalar RSUExampleScenario.node[91].veinsmobility 	startTime 	546.1
scalar RSUExampleScenario.node[91].veinsmobility 	totalTime 	227.2
scalar RSUExampleScenario.node[91].veinsmobility 	stopTime 	773.4
scalar RSUExampleScenario.node[91].veinsmobility 	minSpeed 	0.25806911761081
scalar RSUExampleScenario.node[91].veinsmobility 	maxSpeed 	18.999329060805
scalar RSUExampleScenario.node[91].veinsmobility 	totalDistance 	3409.6873269893
scalar RSUExampleScenario.node[91].veinsmobility 	totalCO2Emission 	704.1538477955
scalar RSUExampleScenario.node[92].veinsmobility 	startTime 	552.1
scalar RSUExampleScenario.node[92].veinsmobility 	totalTime 	226.9
scalar RSUExampleScenario.node[92].veinsmobility 	stopTime 	779.1
scalar RSUExampleScenario.node[92].veinsmobility 	minSpeed 	0.25490044397209
scalar RSUExampleScenario.node[92].veinsmobility 	maxSpeed 	18.999845642182
scalar RSUExampleScenario.node[92].veinsmobility 	totalDistance 	3409.2750991275
scalar RSUExampleScenario.node[92].veinsmobility 	totalCO2Emission 	705.68396019946
scalar RSUExampleScenario.node[93].veinsmobility 	startTime 	558.1
scalar RSUExampleScenario.node[93].veinsmobility 	totalTime 	226.8
scalar RSUExampleScenario.node[93].veinsmobility 	stopTime 	785
scalar RSUExampleScenario.node[93].veinsmobility 	minSpeed 	0.25905831096694
scalar RSUExampleScenario.node[93].veinsmobility 	maxSpeed 	18.999806504529
scalar RSUExampleScenario.node[93].veinsmobility 	totalDistance 	3409.3666597581
scalar RSUExampleScenario.node[93].veinsmobility 	totalCO2Emission 	707.95966275663
scalar RSUExampleScenario.node[94].veinsmobility 	startTime 	564.1
scalar RSUExampleScenario.node[94].veinsmobility 	totalTime 	226.8
scalar RSUExampleScenario.node[94].veinsmobility 	stopTime 	791
scalar RSUExampleScenario.node[94].veinsmobility 	minSpeed 	0.25362411905499
scalar RSUExampleScenario.node[94].veinsmobility 	maxSpeed 	18.999663032531
scalar RSUExampleScenario.node[94].veinsmobility 	totalDistance 	3409.3441362514
scalar RSUExampleScenario.node[94].veinsmobility 	totalCO2Emission 	709.49520202421
scalar RSUExampleScenario.node[95].veinsmobility 	startTime 	570.1
scalar RSUExampleScenario.node[95].veinsmobility 	totalTime 	226.9
scalar RSUExampleScenario.node[95].veinsmobility 	stopTime 	797.1
scalar RSUExampleScenario.node[95].veinsmobility 	minSpeed 	0.25149065714632
scalar RSUExampleScenario.node[95].veinsmobility 	maxSpeed 	18.999946409415
scalar RSUExampleScenario.node[95].veinsmobility 	totalDistance 	3409.2206448903
scalar RSUExampleScenario.node[95].veinsmobility 	totalCO2Emission 	704.30069845738
scalar RSUExampleScenario.node[96].veinsmobility 	startTime 	576.1
scalar RSUExampleScenario.node[96].veinsmobility 	totalTime 	226.7
scalar RSUExampleScenario.node[96].veinsmobility 	stopTime 	802.9
scalar RSUExampleScenario.node[96].veinsmobility 	minSpeed 	0.25806362403533
scalar RSUExampleScenario.node[96].veinsmobility 	maxSpeed 	18.999998799905
scalar RSUExampleScenario.node[96].veinsmobility 	totalDistance 	3409.7707546691
scalar RSUExampleScenario.node[96].veinsmobility 	totalCO2Emission 	711.280133511
scalar RSUExampleScenario.node[97].veinsmobility 	startTime 	582.1
scalar RSUExampleScenario.node[97].veinsmobility 	totalTime 	226.5
scalar RSUExampleScenario.node[97].veinsmobility 	stopTime 	808.7
scalar RSUExampleScenario.node[97].veinsmobility 	minSpeed 	0.25774293127353
scalar RSUExampleScenario.node[97].veinsmobility 	maxSpeed 	18.999786334278
scalar RSUExampleScenario.node[97].veinsmobility 	totalDistance 	3409.4992102106
scalar RSUExampleScenario.node[97].veinsmobility 	totalCO2Emission 	705.92166148011
scalar RSUExampleScenario.node[98].veinsmobility 	startTime 	588.1
scalar RSUExampleScenario.node[98].veinsmobility 	totalTime 	226.9
scalar RSUExampleScenario.node[98].veinsmobility 	stopTime 	815.1
scalar RSUExampleScenario.node[98].veinsmobility 	minSpeed 	0.24854236870422
scalar RSUExampleScenario.node[98].veinsmobility 	maxSpeed 	18.99980216295
scalar RSUExampleScenario.node[98].veinsmobility 	totalDistance 	3409.650476928
scalar RSUExampleScenario.node[98].veinsmobility 	totalCO2Emission 	707.80136071131
scalar RSUExampleScenario.node[99].veinsmobility 	startTime 	594.1
scalar RSUExampleScenario.node[99].veinsmobility 	totalTime 	226.8
scalar RSUExampleScenario.node[99].veinsmobility 	stopTime 	821
scalar RSUExampleScenario.node[99].veinsmobility 	minSpeed 	0.24951557221403
scalar RSUExampleScenario.node[99].veinsmobility 	maxSpeed 	18.999955821638
scalar RSUExampleScenario.node[99].veinsmobility 	totalDistance 	3409.6058025721
scalar RSUExampleScenario.node[99].veinsmobility 	totalCO2Emission 	707.95391364602
scalar RSUExampleScenario.node[100].veinsmobility 	startTime 	600.1
scalar RSUExampleScenario.node[100].veinsmobility 	totalTime 	226.8
scalar RSUExampleScenario.node[100].veinsmobility 	stopTime 	827
scalar RSUExampleScenario.node[100].veinsmobility 	minSpeed 	0.25062856572471
scalar RSUExampleScenario.node[100].veinsmobility 	maxSpeed 	18.999790740055
scalar RSUExampleScenario.node[100].veinsmobility 	totalDistance 	3409.9803914011
scalar RSUExampleScenario.node[100].veinsmobility 	totalCO2Emission 	706.16447514474
scalar RSUExampleScenario.node[101].veinsmobility 	startTime 	606.1
scalar RSUExampleScenario.node[101].veinsmobility 	totalTime 	227.1
scalar RSUExampleScenario.node[101].veinsmobility 	stopTime 	833.3
scalar RSUExampleScenario.node[101].veinsmobility 	minSpeed 	0.2476405903867
scalar RSUExampleScenario.node[101].veinsmobility 	maxSpeed 	18.999322105979
scalar RSUExampleScenario.node[101].veinsmobility 	totalDistance 	3409.3461256986
scalar RSUExampleScenario.node[101].veinsmobility 	totalCO2Emission 	707.26080754743
scalar RSUExampleScenario.node[102].veinsmobility 	startTime 	612.1
scalar RSUExampleScenario.node[102].veinsmobility 	totalTime 	226.9
scalar RSUExampleScenario.node[102].veinsmobility 	stopTime 	839.1
scalar RSUExampleScenario.node[102].veinsmobility 	minSpeed 	0.247710241633
scalar RSUExampleScenario.node[102].veinsmobility 	maxSpeed 	18.999596141104
scalar RSUExampleScenario.node[102].veinsmobility 	totalDistance 	3409.3506348995
scalar RSUExampleScenario.node[102].veinsmobility 	totalCO2Emission 	711.62817217365
scalar RSUExampleScenario.node[103].veinsmobility 	startTime 	618.1
scalar RSUExampleScenario.node[103].veinsmobility 	totalTime 	226.7
scalar RSUExampleScenario.node[103].veinsmobility 	stopTime 	844.9
scalar RSUExampleScenario.node[103].veinsmobility 	minSpeed 	0.25700565648708
scalar RSUExampleScenario.node[103].veinsmobility 	maxSpeed 	18.999816030711
scalar RSUExampleScenario.node[103].veinsmobility 	totalDistance 	3409.0984336766
scalar RSUExampleScenario.node[103].veinsmobility 	totalCO2Emission 	709.21535462945
scalar RSUExampleScenario.node[104].veinsmobility 	startTime 	624.1
scalar RSUExampleScenario.node[104].veinsmobility 	totalTime 	226.9
scalar RSUExampleScenario.node[104].veinsmobility 	stopTime 	851.1
scalar RSUExampleScenario.node[104].veinsmobility 	minSpeed 	0.25042101856018
scalar RSUExampleScenario.node[104].veinsmobility 	maxSpeed 	18.999990800954
scalar RSUExampleScenario.node[104].veinsmobility 	totalDistance 	3409.3398824391
scalar RSUExampleScenario.node[104].veinsmobility 	totalCO2Emission 	710.10271397512
scalar RSUExampleScenario.node[105].veinsmobility 	startTime 	630.1
scalar RSUExampleScenario.node[105].veinsmobility 	totalTime 	227.1
scalar RSUExampleScenario.node[105].veinsmobility 	stopTime 	857.3
scalar RSUExampleScenario.node[105].veinsmobility 	minSpeed 	0.25903156050434
scalar RSUExampleScenario.node[105].veinsmobility 	maxSpeed 	18.99969940593
scalar RSUExampleScenario.node[105].veinsmobility 	totalDistance 	3409.3495343683
scalar RSUExampleScenario.node[105].veinsmobility 	totalCO2Emission 	704.776533399
scalar RSUExampleScenario.node[106].veinsmobility 	startTime 	636.1
scalar RSUExampleScenario.node[106].veinsmobility 	totalTime 	226.6
scalar RSUExampleScenario.node[106].veinsmobility 	stopTime 	862.8
scalar RSUExampleScenario.node[106].veinsmobility 	minSpeed 	0.25178459117026
scalar RSUExampleScenario.node[106].veinsmobility 	maxSpeed 	18.999811670154
scalar RSUExampleScenario.node[106].veinsmobility 	totalDistance 	3409.6342838215
scalar RSUExampleScenario.node[106].veinsmobility 	totalCO2Emission 	711.25332558976
scalar RSUExampleScenario.node[107].veinsmobility 	startTime 	642.1
scalar RSUExampleScenario.node[107].veinsmobility 	totalTime 	226.9
scalar RSUExampleScenario.node[107].veinsmobility 	stopTime 	869.1
scalar RSUExampleScenario.node[107].veinsmobility 	minSpeed 	0.25672258521267
scalar RSUExampleScenario.node[107].veinsmobility 	maxSpeed 	18.999759489663
scalar RSUExampleScenario.node[107].veinsmobility 	totalDistance 	3409.7228032891
scalar RSUExampleScenario.node[107].veinsmobility 	totalCO2Emission 	707.52040855792
scalar RSUExampleScenario.node[108].veinsmobility 	startTime 	648.1
scalar RSUExampleScenario.node[108].veinsmobility 	totalTime 	226.7
scalar RSUExampleScenario.node[108].veinsmobility 	stopTime 	874.9
scalar RSUExampleScenario.node[108].veinsmobility 	minSpeed 	0.25709727551253
scalar RSUExampleScenario.node[108].veinsmobility 	maxSpeed 	18.999845463934
scalar RSUExampleScenario.node[108].veinsmobility 	totalDistance 	3409.4949841173
scalar RSUExampleScenario.node[108].veinsmobility 	totalCO2Emission 	704.11729297663
scalar RSUExampleScenario.node[109].veinsmobility 	startTime 	654.1
scalar RSUExampleScenario.node[109].veinsmobility 	totalTime 	226.6
scalar RSUExampleScenario.node[109].veinsmobility 	stopTime 	880.8
scalar RSUExampleScenario.node[109].veinsmobility 	minSpeed 	0.24743830787786
scalar RSUExampleScenario.node[109].veinsmobility 	maxSpeed 	18.999914264604
scalar RSUExampleScenario.node[109].veinsmobility 	totalDistance 	3409.6144335521
scalar RSUExampleScenario.node[109].veinsmobility 	totalCO2Emission 	706.17713442457
scalar RSUExampleScenario.node[110].veinsmobility 	startTime 	660.1
scalar RSUExampleScenario.node[110].veinsmobility 	totalTime 	226.5
scalar RSUExampleScenario.node[110].veinsmobility 	stopTime 	886.7
scalar RSUExampleScenario.node[110].veinsmobility 	minSpeed 	0.25906992022786
scalar RSUExampleScenario.node[110].veinsmobility 	maxSpeed 	18.999941925334
scalar RSUExampleScenario.node[110].veinsmobility 	totalDistance 	3409.6713864145
scalar RSUExampleScenario.node[110].veinsmobility 	totalCO2Emission 	708.35055609477
scalar RSUExampleScenario.node[111].veinsmobility 	startTime 	666.1
scalar RSUExampleScenario.node[111].veinsmobility 	totalTime 	227
scalar RSUExampleScenario.node[111].veinsmobility 	stopTime 	893.2
scalar RSUExampleScenario.node[111].veinsmobility 	minSpeed 	0.25117008589837
scalar RSUExampleScenario.node[111].veinsmobility 	maxSpeed 	18.999594116812
scalar RSUExampleScenario.node[111].veinsmobility 	totalDistance 	3409.4969937405
scalar RSUExampleScenario.node[111].veinsmobility 	totalCO2Emission 	708.38913253609
scalar RSUExampleScenario.node[112].veinsmobility 	startTime 	672.1
scalar RSUExampleScenario.node[112].veinsmobility 	totalTime 	226.7
scalar RSUExampleScenario.node[112].veinsmobility 	stopTime 	898.9
scalar RSUExampleScenario.node[112].veinsmobility 	minSpeed 	0.25396856550989
scalar RSUExampleScenario.node[112].veinsmobility 	maxSpeed 	18.999877814627
scalar RSUExampleScenario.node[112].veinsmobility 	totalDistance 	3409.3191229094
scalar RSUExampleScenario.node[112].veinsmobility 	totalCO2Emission 	704.53591192243
scalar RSUExampleScenario.node[113].veinsmobility 	startTime 	678.1
scalar RSUExampleScenario.node[113].veinsmobility 	totalTime 	226.9
scalar RSUExampleScenario.node[113].veinsmobility 	stopTime 	905.1
scalar RSUExampleScenario.node[113].veinsmobility 	minSpeed 	0.24818242036528
scalar RSUExampleScenario.node[113].veinsmobility 	maxSpeed 	18.999790976024
scalar RSUExampleScenario.node[113].veinsmobility 	totalDistance 	3409.4525594067
scalar RSUExampleScenario.node[113].veinsmobility 	totalCO2Emission 	706.47018754827
scalar RSUExampleScenario.node[114].veinsmobility 	startTime 	684.1
scalar RSUExampleScenario.node[114].veinsmobility 	totalTime 	227.1
scalar RSUExampleScenario.node[114].veinsmobility 	stopTime 	911.3
scalar RSUExampleScenario.node[114].veinsmobility 	minSpeed 	0.24772925742413
scalar RSUExampleScenario.node[114].veinsmobility 	maxSpeed 	18.999953012466
scalar RSUExampleScenario.node[114].veinsmobility 	totalDistance 	3409.0951981354
scalar RSUExampleScenario.node[114].veinsmobility 	totalCO2Emission 	706.76920908398
scalar RSUExampleScenario.node[115].veinsmobility 	startTime 	690.1
scalar RSUExampleScenario.node[115].veinsmobility 	totalTime 	226.7
scalar RSUExampleScenario.node[115].veinsmobility 	stopTime 	916.9
scalar RSUExampleScenario.node[115].veinsmobility 	minSpeed 	0.25047936050128
scalar RSUExampleScenario.node[115].veinsmobility 	maxSpeed 	18.999510616404
scalar RSUExampleScenario.node[115].veinsmobility 	totalDistance 	3409.2726333688
scalar RSUExampleScenario.node[115].veinsmobility 	totalCO2Emission 	704.71210526032
scalar RSUExampleScenario.node[116].veinsmobility 	startTime 	696.1
scalar RSUExampleScenario.node[116].veinsmobility 	totalTime 	226.9
scalar RSUExampleScenario.node[116].veinsmobility 	stopTime 	923.1
scalar RSUExampleScenario.node[116].veinsmobility 	minSpeed 	0.251470952356
scalar RSUExampleScenario.node[116].veinsmobility 	maxSpeed 	18.999996324528
scalar RSUExampleScenario.node[116].veinsmobility 	totalDistance 	3409.5412664474
scalar RSUExampleScenario.node[116].veinsmobility 	totalCO2Emission 	708.15291856909
scalar RSUExampleScenario.node[117].veinsmobility 	startTime 	702.1
scalar RSUExampleScenario.node[117].veinsmobility 	totalTime 	226.9
scalar RSUExampleScenario.node[117].veinsmobility 	stopTime 	929.1
scalar RSUExampleScenario.node[117].veinsmobility 	minSpeed 	0.25256598424888
scalar RSUExampleScenario.node[117].veinsmobility 	maxSpeed 	18.999728553907
scalar RSUExampleScenario.node[117].veinsmobility 	totalDistance 	3409.2168324998
scalar RSUExampleScenario.node[117].veinsmobility 	totalCO2Emission 	706.44841973761
scalar RSUExampleScenario.node[118].veinsmobility 	startTime 	708.1
scalar RSUExampleScenario.node[118].veinsmobility 	totalTime 	226.6
scalar RSUExampleScenario.node[118].veinsmobility 	stopTime 	934.8
scalar RSUExampleScenario.node[118].veinsmobility 	minSpeed 	0.25814165911661
scalar RSUExampleScenario.node[118].veinsmobility 	maxSpeed 	18.999991912788
scalar RSUExampleScenario.node[118].veinsmobility 	totalDistance 	3409.3031215563
scalar RSUExampleScenario.node[118].veinsmobility 	totalCO2Emission 	706.47484022176
scalar RSUExampleScenario.node[119].veinsmobility 	startTime 	714.1
scalar RSUExampleScenario.node[119].veinsmobility 	totalTime 	226.8
scalar RSUExampleScenario.node[119].veinsmobility 	stopTime 	941
scalar RSUExampleScenario.node[119].veinsmobility 	minSpeed 	0.24871890255716
scalar RSUExampleScenario.node[119].veinsmobility 	maxSpeed 	18.999969476252
scalar RSUExampleScenario.node[119].veinsmobility 	totalDistance 	3409.6687914362
scalar RSUExampleScenario.node[119].veinsmobility 	totalCO2Emission 	709.64483222874
scalar RSUExampleScenario.node[120].veinsmobility 	startTime 	720.1
scalar RSUExampleScenario.node[120].veinsmobility 	totalTime 	227
scalar RSUExampleScenario.node[120].veinsmobility 	stopTime 	947.2
scalar RSUExampleScenario.node[120].veinsmobility 	minSpeed 	0.24903423786769
scalar RSUExampleScenario.node[120].veinsmobility 	maxSpeed 	18.999909780766
scalar RSUExampleScenario.node[120].veinsmobility 	totalDistance 	3409.5495581011
scalar RSUExampleScenario.node[120].veinsmobility 	totalCO2Emission 	704.44513449357
scalar RSUExampleScenario.node[121].veinsmobility 	startTime 	726.1
scalar RSUExampleScenario.node[121].veinsmobility 	totalTime 	226.8
scalar RSUExampleScenario.node[121].veinsmobility 	stopTime 	953
scalar RSUExampleScenario.node[121].veinsmobility 	minSpeed 	0.25352005748497
scalar RSUExampleScenario.node[121].veinsmobility 	maxSpeed 	18.999898569051
scalar RSUExampleScenario.node[121].veinsmobility 	totalDistance 	3409.4790249093
scalar RSUExampleScenario.node[121].veinsmobility 	totalCO2Emission 	706.67298881278
scalar RSUExampleScenario.node[122].veinsmobility 	startTime 	732.1
scalar RSUExampleScenario.node[122].veinsmobility 	totalTime 	226.7
scalar RSUExampleScenario.node[122].veinsmobility 	stopTime 	958.9
scalar RSUExampleScenario.node[122].veinsmobility 	minSpeed 	0.25243895144644
scalar RSUExampleScenario.node[122].veinsmobility 	maxSpeed 	18.999871554936
scalar RSUExampleScenario.node[122].veinsmobility 	totalDistance 	3409.4273492637
scalar RSUExampleScenario.node[122].veinsmobility 	totalCO2Emission 	700.23446713821
scalar RSUExampleScenario.node[123].veinsmobility 	startTime 	738.1
scalar RSUExampleScenario.node[123].veinsmobility 	totalTime 	226.7
scalar RSUExampleScenario.node[123].veinsmobility 	stopTime 	964.9
scalar RSUExampleScenario.node[123].veinsmobility 	minSpeed 	0.24929824311519
scalar RSUExampleScenario.node[123].veinsmobility 	maxSpeed 	18.999970391949
scalar RSUExampleScenario.node[123].veinsmobility 	totalDistance 	3409.1662808767
scalar RSUExampleScenario.node[123].veinsmobility 	totalCO2Emission 	707.49644519161
scalar RSUExampleScenario.node[124].veinsmobility 	startTime 	744.1
scalar RSUExampleScenario.node[124].veinsmobility 	totalTime 	226.9
scalar RSUExampleScenario.node[124].veinsmobility 	stopTime 	971.1
scalar RSUExampleScenario.node[124].veinsmobility 	minSpeed 	0.24817780857789
scalar RSUExampleScenario.node[124].veinsmobility 	maxSpeed 	18.999837696322
scalar RSUExampleScenario.node[124].veinsmobility 	totalDistance 	3409.2905011834
scalar RSUExampleScenario.node[124].veinsmobility 	totalCO2Emission 	707.46343008174
scalar RSUExampleScenario.node[125].veinsmobility 	startTime 	750.1
scalar RSUExampleScenario.node[125].veinsmobility 	totalTime 	226.8
scalar RSUExampleScenario.node[125].veinsmobility 	stopTime 	977
scalar RSUExampleScenario.node[125].veinsmobility 	minSpeed 	0.25250530415145
scalar RSUExampleScenario.node[125].veinsmobility 	maxSpeed 	18.999577884395
scalar RSUExampleScenario.node[125].veinsmobility 	totalDistance 	3409.5812154169
scalar RSUExampleScenario.node[125].veinsmobility 	totalCO2Emission 	706.36641023637
scalar RSUExampleScenario.node[126].veinsmobility 	startTime 	756.1
scalar RSUExampleScenario.node[126].veinsmobility 	totalTime 	226.9
scalar RSUExampleScenario.node[126].veinsmobility 	stopTime 	983.1
scalar RSUExampleScenario.node[126].veinsmobility 	minSpeed 	0.25090637736185
scalar RSUExampleScenario.node[126].veinsmobility 	maxSpeed 	18.999793955937
scalar RSUExampleScenario.node[126].veinsmobility 	totalDistance 	3409.510635836
scalar RSUExampleScenario.node[126].veinsmobility 	totalCO2Emission 	706.77283048134
scalar RSUExampleScenario.node[127].veinsmobility 	startTime 	762.1
scalar RSUExampleScenario.node[127].veinsmobility 	totalTime 	226.9
scalar RSUExampleScenario.node[127].veinsmobility 	stopTime 	989.1
scalar RSUExampleScenario.node[127].veinsmobility 	minSpeed 	0.25817953973729
scalar RSUExampleScenario.node[127].veinsmobility 	maxSpeed 	18.99982039487
scalar RSUExampleScenario.node[127].veinsmobility 	totalDistance 	3409.2534861941
scalar RSUExampleScenario.node[127].veinsmobility 	totalCO2Emission 	709.61980454641
scalar RSUExampleScenario.node[128].veinsmobility 	startTime 	768.1
scalar RSUExampleScenario.node[128].veinsmobility 	totalTime 	227.1
scalar RSUExampleScenario.node[128].veinsmobility 	stopTime 	995.3
scalar RSUExampleScenario.node[128].veinsmobility 	minSpeed 	0.25082456034748
scalar RSUExampleScenario.node[128].veinsmobility 	maxSpeed 	18.999522169572
scalar RSUExampleScenario.node[128].veinsmobility 	totalDistance 	3409.6449779739
scalar RSUExampleScenario.node[128].veinsmobility 	totalCO2Emission 	707.79428794799
scalar RSUExampleScenario.node[129].veinsmobility 	startTime 	774.1
scalar RSUExampleScenario.node[129].veinsmobility 	totalTime 	227
scalar RSUExampleScenario.node[129].veinsmobility 	stopTime 	1001.2
scalar RSUExampleScenario.node[129].veinsmobility 	minSpeed 	0.25481665252568
scalar RSUExampleScenario.node[129].veinsmobility 	maxSpeed 	18.999980965131
scalar RSUExampleScenario.node[129].veinsmobility 	totalDistance 	3409.4484773379
scalar RSUExampleScenario.node[129].veinsmobility 	totalCO2Emission 	705.7982108696
scalar RSUExampleScenario.node[130].veinsmobility 	startTime 	780.1
scalar RSUExampleScenario.node[130].veinsmobility 	totalTime 	226.9
scalar RSUExampleScenario.node[130].veinsmobility 	stopTime 	1007.1
scalar RSUExampleScenario.node[130].veinsmobility 	minSpeed 	0.25643802228966
scalar RSUExampleScenario.node[130].veinsmobility 	maxSpeed 	18.999922256956
scalar RSUExampleScenario.node[130].veinsmobility 	totalDistance 	3409.3496615791
scalar RSUExampleScenario.node[130].veinsmobility 	totalCO2Emission 	707.65091189744
scalar RSUExampleScenario.node[131].veinsmobility 	startTime 	786.1
scalar RSUExampleScenario.node[131].veinsmobility 	totalTime 	227.2
scalar RSUExampleScenario.node[131].veinsmobility 	stopTime 	1013.4
scalar RSUExampleScenario.node[131].veinsmobility 	minSpeed 	0.25789532490517
scalar RSUExampleScenario.node[131].veinsmobility 	maxSpeed 	18.999927990288
scalar RSUExampleScenario.node[131].veinsmobility 	totalDistance 	3409.4927221822
scalar RSUExampleScenario.node[131].veinsmobility 	totalCO2Emission 	708.63360107843
scalar RSUExampleScenario.node[132].veinsmobility 	startTime 	792.1
scalar RSUExampleScenario.node[132].veinsmobility 	totalTime 	227
scalar RSUExampleScenario.node[132].veinsmobility 	stopTime 	1019.2
scalar RSUExampleScenario.node[132].veinsmobility 	minSpeed 	0.24708429577155
scalar RSUExampleScenario.node[132].veinsmobility 	maxSpeed 	18.99978106671
scalar RSUExampleScenario.node[132].veinsmobility 	totalDistance 	3409.9715429557
scalar RSUExampleScenario.node[132].veinsmobility 	totalCO2Emission 	706.16903245056
scalar RSUExampleScenario.node[133].veinsmobility 	startTime 	798.1
scalar RSUExampleScenario.node[133].veinsmobility 	totalTime 	226.9
scalar RSUExampleScenario.node[133].veinsmobility 	stopTime 	1025.1
scalar RSUExampleScenario.node[133].veinsmobility 	minSpeed 	0.24777507321443
scalar RSUExampleScenario.node[133].veinsmobility 	maxSpeed 	18.999538487254
scalar RSUExampleScenario.node[133].veinsmobility 	totalDistance 	3409.1256533823
scalar RSUExampleScenario.node[133].veinsmobility 	totalCO2Emission 	708.05231359537
scalar RSUExampleScenario.node[134].veinsmobility 	startTime 	804.1
scalar RSUExampleScenario.node[134].veinsmobility 	totalTime 	226.6
scalar RSUExampleScenario.node[134].veinsmobility 	stopTime 	1030.8
scalar RSUExampleScenario.node[134].veinsmobility 	minSpeed 	0.25711777523998
scalar RSUExampleScenario.node[134].veinsmobility 	maxSpeed 	18.99967302148
scalar RSUExampleScenario.node[134].veinsmobility 	totalDistance 	3409.6270234283
scalar RSUExampleScenario.node[134].veinsmobility 	totalCO2Emission 	705.68934317138
scalar RSUExampleScenario.node[135].veinsmobility 	startTime 	810.1
scalar RSUExampleScenario.node[135].veinsmobility 	totalTime 	227
scalar RSUExampleScenario.node[135].veinsmobility 	stopTime 	1037.2
scalar RSUExampleScenario.node[135].veinsmobility 	minSpeed 	0.2525080686505
scalar RSUExampleScenario.node[135].veinsmobility 	maxSpeed 	18.99997051284
scalar RSUExampleScenario.node[135].veinsmobility 	totalDistance 	3409.6814533777
scalar RSUExampleScenario.node[135].veinsmobility 	totalCO2Emission 	708.40850283631
scalar RSUExampleScenario.node[136].veinsmobility 	startTime 	816.1
scalar RSUExampleScenario.node[136].veinsmobility 	totalTime 	227.1
scalar RSUExampleScenario.node[136].veinsmobility 	stopTime 	1043.3
scalar RSUExampleScenario.node[136].veinsmobility 	minSpeed 	0.2485064162449
scalar RSUExampleScenario.node[136].veinsmobility 	maxSpeed 	18.999992437151
scalar RSUExampleScenario.node[136].veinsmobility 	totalDistance 	3409.5925445546
scalar RSUExampleScenario.node[136].veinsmobility 	totalCO2Emission 	705.87434607495
scalar RSUExampleScenario.node[137].veinsmobility 	startTime 	822.1
scalar RSUExampleScenario.node[137].veinsmobility 	totalTime 	226.8
scalar RSUExampleScenario.node[137].veinsmobility 	stopTime 	1049
scalar RSUExampleScenario.node[137].veinsmobility 	minSpeed 	0.24889087493415
scalar RSUExampleScenario.node[137].veinsmobility 	maxSpeed 	18.999861555998
scalar RSUExampleScenario.node[137].veinsmobility 	totalDistance 	3409.4392270139
scalar RSUExampleScenario.node[137].veinsmobility 	totalCO2Emission 	706.64803128878
scalar RSUExampleScenario.node[138].veinsmobility 	startTime 	828.1
scalar RSUExampleScenario.node[138].veinsmobility 	totalTime 	226.8
scalar RSUExampleScenario.node[138].veinsmobility 	stopTime 	1055
scalar RSUExampleScenario.node[138].veinsmobility 	minSpeed 	0.25846826532832
scalar RSUExampleScenario.node[138].veinsmobility 	maxSpeed 	18.999512433482
scalar RSUExampleScenario.node[138].veinsmobility 	totalDistance 	3409.5242533449
scalar RSUExampleScenario.node[138].veinsmobility 	totalCO2Emission 	708.98502061892
scalar RSUExampleScenario.node[139].veinsmobility 	startTime 	834.1
scalar RSUExampleScenario.node[139].veinsmobility 	totalTime 	226.9
scalar RSUExampleScenario.node[139].veinsmobility 	stopTime 	1061.1
scalar RSUExampleScenario.node[139].veinsmobility 	minSpeed 	0.25457236841926
scalar RSUExampleScenario.node[139].veinsmobility 	maxSpeed 	18.999839264869
scalar RSUExampleScenario.node[139].veinsmobility 	totalDistance 	3409.4390906313
scalar RSUExampleScenario.node[139].veinsmobility 	totalCO2Emission 	712.04193976194
scalar RSUExampleScenario.node[140].veinsmobility 	startTime 	840.1
scalar RSUExampleScenario.node[140].veinsmobility 	totalTime 	226.8
scalar RSUExampleScenario.node[140].veinsmobility 	stopTime 	1067
scalar RSUExampleScenario.node[140].veinsmobility 	minSpeed 	0.25833239923255
scalar RSUExampleScenario.node[140].veinsmobility 	maxSpeed 	18.999777262781
scalar RSUExampleScenario.node[140].veinsmobility 	totalDistance 	3409.195589963
scalar RSUExampleScenario.node[140].veinsmobility 	totalCO2Emission 	707.62448447424
scalar RSUExampleScenario.node[141].veinsmobility 	startTime 	846.1
scalar RSUExampleScenario.node[141].veinsmobility 	totalTime 	226.8
scalar RSUExampleScenario.node[141].veinsmobility 	stopTime 	1073
scalar RSUExampleScenario.node[141].veinsmobility 	minSpeed 	0.24839811759605
scalar RSUExampleScenario.node[141].veinsmobility 	maxSpeed 	18.999492614036
scalar RSUExampleScenario.node[141].veinsmobility 	totalDistance 	3409.3713085428
scalar RSUExampleScenario.node[141].veinsmobility 	totalCO2Emission 	710.36186683645
scalar RSUExampleScenario.node[142].veinsmobility 	startTime 	852.1
scalar RSUExampleScenario.node[142].veinsmobility 	totalTime 	226.6
scalar RSUExampleScenario.node[142].veinsmobility 	stopTime 	1078.8
scalar RSUExampleScenario.node[142].veinsmobility 	minSpeed 	0.25817843438988
scalar RSUExampleScenario.node[142].veinsmobility 	maxSpeed 	18.999848825557
scalar RSUExampleScenario.node[142].veinsmobility 	totalDistance 	3409.3556413889
scalar RSUExampleScenario.node[142].veinsmobility 	totalCO2Emission 	704.72447925944
scalar RSUExampleScenario.node[143].veinsmobility 	startTime 	858.1
scalar RSUExampleScenario.node[143].veinsmobility 	totalTime 	226.9
scalar RSUExampleScenario.node[143].veinsmobility 	stopTime 	1085.1
scalar RSUExampleScenario.node[143].veinsmobility 	minSpeed 	0.25230785731017
scalar RSUExampleScenario.node[143].veinsmobility 	maxSpeed 	18.999964826363
scalar RSUExampleScenario.node[143].veinsmobility 	totalDistance 	3409.5780732238
scalar RSUExampleScenario.node[143].veinsmobility 	totalCO2Emission 	708.30207604981
scalar RSUExampleScenario.node[144].veinsmobility 	startTime 	864.1
scalar RSUExampleScenario.node[144].veinsmobility 	totalTime 	226.8
scalar RSUExampleScenario.node[144].veinsmobility 	stopTime 	1091
scalar RSUExampleScenario.node[144].veinsmobility 	minSpeed 	0.25260153619619
scalar RSUExampleScenario.node[144].veinsmobility 	maxSpeed 	18.999712820852
scalar RSUExampleScenario.node[144].veinsmobility 	totalDistance 	3409.1732247577
scalar RSUExampleScenario.node[144].veinsmobility 	totalCO2Emission 	702.0465431894
scalar RSUExampleScenario.node[145].veinsmobility 	startTime 	870.1
scalar RSUExampleScenario.node[145].veinsmobility 	totalTime 	226.9
scalar RSUExampleScenario.node[145].veinsmobility 	stopTime 	1097.1
scalar RSUExampleScenario.node[145].veinsmobility 	minSpeed 	0.25513104131701
scalar RSUExampleScenario.node[145].veinsmobility 	maxSpeed 	18.999941435386
scalar RSUExampleScenario.node[145].veinsmobility 	totalDistance 	3409.5111844347
scalar RSUExampleScenario.node[145].veinsmobility 	totalCO2Emission 	712.0702001353
scalar RSUExampleScenario.node[146].veinsmobility 	startTime 	876.1
scalar RSUExampleScenario.node[146].veinsmobility 	totalTime 	227
scalar RSUExampleScenario.node[146].veinsmobility 	stopTime 	1103.2
scalar RSUExampleScenario.node[146].veinsmobility 	minSpeed 	0.24933324783854
scalar RSUExampleScenario.node[146].veinsmobility 	maxSpeed 	18.999858101029
scalar RSUExampleScenario.node[146].veinsmobility 	totalDistance 	3409.6650989739
scalar RSUExampleScenario.node[146].veinsmobility 	totalCO2Emission 	704.84590229888
scalar RSUExampleScenario.node[147].veinsmobility 	startTime 	882.1
scalar RSUExampleScenario.node[147].veinsmobility 	totalTime 	226.8
scalar RSUExampleScenario.node[147].veinsmobility 	stopTime 	1109
scalar RSUExampleScenario.node[147].veinsmobility 	minSpeed 	0.24981272209017
scalar RSUExampleScenario.node[147].veinsmobility 	maxSpeed 	18.999409866696
scalar RSUExampleScenario.node[147].veinsmobility 	totalDistance 	3409.5663232009
scalar RSUExampleScenario.node[147].veinsmobility 	totalCO2Emission 	708.01683782884
scalar RSUExampleScenario.node[148].veinsmobility 	startTime 	888.1
scalar RSUExampleScenario.node[148].veinsmobility 	totalTime 	226.8
scalar RSUExampleScenario.node[148].veinsmobility 	stopTime 	1115
scalar RSUExampleScenario.node[148].veinsmobility 	minSpeed 	0.25881586890039
scalar RSUExampleScenario.node[148].veinsmobility 	maxSpeed 	18.999662803463
scalar RSUExampleScenario.node[148].veinsmobility 	totalDistance 	3409.344040322
scalar RSUExampleScenario.node[148].veinsmobility 	totalCO2Emission 	704.12293915279
scalar RSUExampleScenario.node[149].veinsmobility 	startTime 	894.1
scalar RSUExampleScenario.node[149].veinsmobility 	totalTime 	226.9
scalar RSUExampleScenario.node[149].veinsmobility 	stopTime 	1121.1
scalar RSUExampleScenario.node[149].veinsmobility 	minSpeed 	0.25757306019077
scalar RSUExampleScenario.node[149].veinsmobility 	maxSpeed 	18.999822681737
scalar RSUExampleScenario.node[149].veinsmobility 	totalDistance 	3409.4056886834
scalar RSUExampleScenario.node[149].veinsmobility 	totalCO2Emission 	714.00753517543
scalar RSUExampleScenario.node[150].veinsmobility 	startTime 	900.1
scalar RSUExampleScenario.node[150].veinsmobility 	totalTime 	226.9
scalar RSUExampleScenario.node[150].veinsmobility 	stopTime 	1127.1
scalar RSUExampleScenario.node[150].veinsmobility 	minSpeed 	0.25758461171854
scalar RSUExampleScenario.node[150].veinsmobility 	maxSpeed 	18.999825357911
scalar RSUExampleScenario.node[150].veinsmobility 	totalDistance 	3409.6682143986
scalar RSUExampleScenario.node[150].veinsmobility 	totalCO2Emission 	709.06807406915
scalar RSUExampleScenario.node[151].veinsmobility 	startTime 	906.1
scalar RSUExampleScenario.node[151].veinsmobility 	totalTime 	226.7
scalar RSUExampleScenario.node[151].veinsmobility 	stopTime 	1132.9
scalar RSUExampleScenario.node[151].veinsmobility 	minSpeed 	0.25547180390102
scalar RSUExampleScenario.node[151].veinsmobility 	maxSpeed 	18.999898158254
scalar RSUExampleScenario.node[151].veinsmobility 	totalDistance 	3409.3550115634
scalar RSUExampleScenario.node[151].veinsmobility 	totalCO2Emission 	710.26264996465
scalar RSUExampleScenario.node[152].veinsmobility 	startTime 	912.1
scalar RSUExampleScenario.node[152].veinsmobility 	totalTime 	226.6
scalar RSUExampleScenario.node[152].veinsmobility 	stopTime 	1138.8
scalar RSUExampleScenario.node[152].veinsmobility 	minSpeed 	0.2474496056661
scalar RSUExampleScenario.node[152].veinsmobility 	maxSpeed 	18.999807631164
scalar RSUExampleScenario.node[152].veinsmobility 	totalDistance 	3409.6288392669
scalar RSUExampleScenario.node[152].veinsmobility 	totalCO2Emission 	708.40669486321
[...]
scalar RSUExampleScenario.node[262].veinsmobility 	startTime 	1572.1
scalar RSUExampleScenario.node[262].veinsmobility 	totalTime 	227
scalar RSUExampleScenario.node[262].veinsmobility 	stopTime 	1799.2
scalar RSUExampleScenario.node[262].veinsmobility 	minSpeed 	0.25287203263678
scalar RSUExampleScenario.node[262].veinsmobility 	maxSpeed 	18.999842769236
scalar RSUExampleScenario.node[262].veinsmobility 	totalDistance 	3409.4878613353
scalar RSUExampleScenario.node[262].veinsmobility 	totalCO2Emission 	707.37210370634
scalar RSUExampleScenario.node[263].veinsmobility 	startTime 	1578.1
scalar RSUExampleScenario.node[263].veinsmobility 	totalTime 	227
scalar RSUExampleScenario.node[263].veinsmobility 	stopTime 	1805.2
scalar RSUExampleScenario.node[263].veinsmobility 	minSpeed 	0.25200450238842
scalar RSUExampleScenario.node[263].veinsmobility 	maxSpeed 	18.999703725686
scalar RSUExampleScenario.node[263].veinsmobility 	totalDistance 	3409.6971736277
scalar RSUExampleScenario.node[263].veinsmobility 	totalCO2Emission 	707.37757674866
scalar RSUExampleScenario.node[264].veinsmobility 	startTime 	1584.1
scalar RSUExampleScenario.node[264].veinsmobility 	totalTime 	226.9
scalar RSUExampleScenario.node[264].veinsmobility 	stopTime 	1811.1
scalar RSUExampleScenario.node[264].veinsmobility 	minSpeed 	0.24903992293659
scalar RSUExampleScenario.node[264].veinsmobility 	maxSpeed 	18.999941245243
scalar RSUExampleScenario.node[264].veinsmobility 	totalDistance 	3409.7912679237
scalar RSUExampleScenario.node[264].veinsmobility 	totalCO2Emission 	706.94794334936
scalar RSUExampleScenario.node[265].veinsmobility 	startTime 	1590.1
scalar RSUExampleScenario.node[265].veinsmobility 	totalTime 	226.9
scalar RSUExampleScenario.node[265].veinsmobility 	stopTime 	1817.1
scalar RSUExampleScenario.node[265].veinsmobility 	minSpeed 	0.25221882066433
scalar RSUExampleScenario.node[265].veinsmobility 	maxSpeed 	18.999845113521
scalar RSUExampleScenario.node[265].veinsmobility 	totalDistance 	3409.2704640569
scalar RSUExampleScenario.node[265].veinsmobility 	totalCO2Emission 	710.57732919867
scalar RSUExampleScenario.node[266].veinsmobility 	startTime 	1596.1
scalar RSUExampleScenario.node[266].veinsmobility 	totalTime 	227.4
scalar RSUExampleScenario.node[266].veinsmobility 	stopTime 	1823.6
scalar RSUExampleScenario.node[266].veinsmobility 	minSpeed 	0.24846013819287
scalar RSUExampleScenario.node[266].veinsmobility 	maxSpeed 	18.999722663425
scalar RSUExampleScenario.node[266].veinsmobility 	totalDistance 	3409.9539313842
scalar RSUExampleScenario.node[266].veinsmobility 	totalCO2Emission 	708.78240497006
scalar RSUExampleScenario.node[267].veinsmobility 	startTime 	1602.1
scalar RSUExampleScenario.node[267].veinsmobility 	totalTime 	227
scalar RSUExampleScenario.node[267].veinsmobility 	stopTime 	1829.2
scalar RSUExampleScenario.node[267].veinsmobility 	minSpeed 	0.24855411595386
scalar RSUExampleScenario.node[267].veinsmobility 	maxSpeed 	18.999909049703
scalar RSUExampleScenario.node[267].veinsmobility 	totalDistance 	3409.5214289805
scalar RSUExampleScenario.node[267].veinsmobility 	totalCO2Emission 	705.98155084189
scalar RSUExampleScenario.node[268].veinsmobility 	startTime 	1608.1
scalar RSUExampleScenario.node[268].veinsmobility 	totalTime 	227
scalar RSUExampleScenario.node[268].veinsmobility 	stopTime 	1835.2
scalar RSUExampleScenario.node[268].veinsmobility 	minSpeed 	0.24775678533805
scalar RSUExampleScenario.node[268].veinsmobility 	maxSpeed 	18.999649045574
scalar RSUExampleScenario.node[268].veinsmobility 	totalDistance 	3409.1091752213
scalar RSUExampleScenario.node[268].veinsmobility 	totalCO2Emission 	708.37537070363
scalar RSUExampleScenario.node[269].veinsmobility 	startTime 	1614.1
scalar RSUExampleScenario.node[269].veinsmobility 	totalTime 	226.7
scalar RSUExampleScenario.node[269].veinsmobility 	stopTime 	1840.9
scalar RSUExampleScenario.node[269].veinsmobility 	minSpeed 	0.2555284044554
scalar RSUExampleScenario.node[269].veinsmobility 	maxSpeed 	18.999810956828
scalar RSUExampleScenario.node[269].veinsmobility 	totalDistance 	3409.5250839025
scalar RSUExampleScenario.node[269].veinsmobility 	totalCO2Emission 	705.71045919582
scalar RSUExampleScenario.node[270].veinsmobility 	startTime 	1620.1
scalar RSUExampleScenario.node[270].veinsmobility 	totalTime 	227
scalar RSUExampleScenario.node[270].veinsmobility 	stopTime 	1847.2
scalar RSUExampleScenario.node[270].veinsmobility 	minSpeed 	0.25799163153325
scalar RSUExampleScenario.node[270].veinsmobility 	maxSpeed 	18.999826787619
scalar RSUExampleScenario.node[270].veinsmobility 	totalDistance 	3409.3497563624
scalar RSUExampleScenario.node[270].veinsmobility 	totalCO2Emission 	706.02447084985
scalar RSUExampleScenario.node[271].veinsmobility 	startTime 	1626.1
scalar RSUExampleScenario.node[271].veinsmobility 	totalTime 	226.9
scalar RSUExampleScenario.node[271].veinsmobility 	stopTime 	1853.1
scalar RSUExampleScenario.node[271].veinsmobility 	minSpeed 	0.25955966793559
scalar RSUExampleScenario.node[271].veinsmobility 	maxSpeed 	18.999970901632
scalar RSUExampleScenario.node[271].veinsmobility 	totalDistance 	3409.1041345091
scalar RSUExampleScenario.node[271].veinsmobility 	totalCO2Emission 	706.63160747017
scalar RSUExampleScenario.node[272].veinsmobility 	startTime 	1632.1
scalar RSUExampleScenario.node[272].veinsmobility 	totalTime 	226.9
scalar RSUExampleScenario.node[272].veinsmobility 	stopTime 	1859.1
scalar RSUExampleScenario.node[272].veinsmobility 	minSpeed 	0.2496480067831
scalar RSUExampleScenario.node[272].veinsmobility 	maxSpeed 	18.999772177911
scalar RSUExampleScenario.node[272].veinsmobility 	totalDistance 	3409.3971256897
scalar RSUExampleScenario.node[272].veinsmobility 	totalCO2Emission 	708.55240395039
scalar RSUExampleScenario.node[273].veinsmobility 	startTime 	1638.1
scalar RSUExampleScenario.node[273].veinsmobility 	totalTime 	226.9
scalar RSUExampleScenario.node[273].veinsmobility 	stopTime 	1865.1
scalar RSUExampleScenario.node[273].veinsmobility 	minSpeed 	0.25357545776851
scalar RSUExampleScenario.node[273].veinsmobility 	maxSpeed 	18.9998635983
scalar RSUExampleScenario.node[273].veinsmobility 	totalDistance 	3409.2020044115
scalar RSUExampleScenario.node[273].veinsmobility 	totalCO2Emission 	704.05974317462
scalar RSUExampleScenario.node[274].veinsmobility 	startTime 	1644.1
scalar RSUExampleScenario.node[274].veinsmobility 	totalTime 	227
scalar RSUExampleScenario.node[274].veinsmobility 	stopTime 	1871.2
scalar RSUExampleScenario.node[274].veinsmobility 	minSpeed 	0.25082498201681
scalar RSUExampleScenario.node[274].veinsmobility 	maxSpeed 	18.999994947063
scalar RSUExampleScenario.node[274].veinsmobility 	totalDistance 	3409.3778054842
scalar RSUExampleScenario.node[274].veinsmobility 	totalCO2Emission 	700.64269205468
scalar RSUExampleScenario.node[275].veinsmobility 	startTime 	1650.1
scalar RSUExampleScenario.node[275].veinsmobility 	totalTime 	226.9
scalar RSUExampleScenario.node[275].veinsmobility 	stopTime 	1877.1
scalar RSUExampleScenario.node[275].veinsmobility 	minSpeed 	0.2479707746827
scalar RSUExampleScenario.node[275].veinsmobility 	maxSpeed 	18.999911605653
scalar RSUExampleScenario.node[275].veinsmobility 	totalDistance 	3409.6086677424
scalar RSUExampleScenario.node[275].veinsmobility 	totalCO2Emission 	705.94169301255
scalar RSUExampleScenario.node[276].veinsmobility 	startTime 	1656.1
scalar RSUExampleScenario.node[276].veinsmobility 	totalTime 	227.1
scalar RSUExampleScenario.node[276].veinsmobility 	stopTime 	1883.3
scalar RSUExampleScenario.node[276].veinsmobility 	minSpeed 	0.25420569273946
scalar RSUExampleScenario.node[276].veinsmobility 	maxSpeed 	18.999865486326
scalar RSUExampleScenario.node[276].veinsmobility 	totalDistance 	3409.3916167198
scalar RSUExampleScenario.node[276].veinsmobility 	totalCO2Emission 	706.6434006044
scalar RSUExampleScenario.node[277].veinsmobility 	startTime 	1662.1
scalar RSUExampleScenario.node[277].veinsmobility 	totalTime 	227.1
scalar RSUExampleScenario.node[277].veinsmobility 	stopTime 	1889.3
scalar RSUExampleScenario.node[277].veinsmobility 	minSpeed 	0.2489263102226
scalar RSUExampleScenario.node[277].veinsmobility 	maxSpeed 	18.999725019666
scalar RSUExampleScenario.node[277].veinsmobility 	totalDistance 	3409.7374993636
scalar RSUExampleScenario.node[277].veinsmobility 	totalCO2Emission 	708.11422770683
scalar RSUExampleScenario.node[278].veinsmobility 	startTime 	1668.1
scalar RSUExampleScenario.node[278].veinsmobility 	totalTime 	226.9
scalar RSUExampleScenario.node[278].veinsmobility 	stopTime 	1895.1
scalar RSUExampleScenario.node[278].veinsmobility 	minSpeed 	0.2519079047367
scalar RSUExampleScenario.node[278].veinsmobility 	maxSpeed 	18.99989995705
scalar RSUExampleScenario.node[278].veinsmobility 	totalDistance 	3409.1299927861
scalar RSUExampleScenario.node[278].veinsmobility 	totalCO2Emission 	706.69766048029
scalar RSUExampleScenario.node[279].veinsmobility 	startTime 	1674.1
scalar RSUExampleScenario.node[279].veinsmobility 	totalTime 	226.9
scalar RSUExampleScenario.node[279].veinsmobility 	stopTime 	1901.1
scalar RSUExampleScenario.node[279].veinsmobility 	minSpeed 	0.24729072544514
scalar RSUExampleScenario.node[279].veinsmobility 	maxSpeed 	18.999964623114
scalar RSUExampleScenario.node[279].veinsmobility 	totalDistance 	3409.1822983712
scalar RSUExampleScenario.node[279].veinsmobility 	totalCO2Emission 	710.01834914106
scalar RSUExampleScenario.node[280].veinsmobility 	startTime 	1680.1
scalar RSUExampleScenario.node[280].veinsmobility 	totalTime 	226.7
scalar RSUExampleScenario.node[280].veinsmobility 	stopTime 	1906.9
scalar RSUExampleScenario.node[280].veinsmobility 	minSpeed 	0.2558372703658
scalar RSUExampleScenario.node[280].veinsmobility 	maxSpeed 	18.999898452277
scalar RSUExampleScenario.node[280].veinsmobility 	totalDistance 	3409.5440693942
scalar RSUExampleScenario.node[280].veinsmobility 	totalCO2Emission 	704.13206768612
scalar RSUExampleScenario.node[281].veinsmobility 	startTime 	1686.1
scalar RSUExampleScenario.node[281].veinsmobility 	totalTime 	226.8
scalar RSUExampleScenario.node[281].veinsmobility 	stopTime 	1913
scalar RSUExampleScenario.node[281].veinsmobility 	minSpeed 	0.25880241072574
scalar RSUExampleScenario.node[281].veinsmobility 	maxSpeed 	18.999947517193
scalar RSUExampleScenario.node[281].veinsmobility 	totalDistance 	3409.4273911141
scalar RSUExampleScenario.node[281].veinsmobility 	totalCO2Emission 	708.62585770212
scalar RSUExampleScenario.node[282].veinsmobility 	startTime 	1692.1
scalar RSUExampleScenario.node[282].veinsmobility 	totalTime 	226.9
scalar RSUExampleScenario.node[282].veinsmobility 	stopTime 	1919.1
scalar RSUExampleScenario.node[282].veinsmobility 	minSpeed 	0.25979547754535
scalar RSUExampleScenario.node[282].veinsmobility 	maxSpeed 	18.999941937653
scalar RSUExampleScenario.node[282].veinsmobility 	totalDistance 	3409.4469884301
scalar RSUExampleScenario.node[282].veinsmobility 	totalCO2Emission 	706.44445708718
scalar RSUExampleScenario.node[283].veinsmobility 	startTime 	1698.1
scalar RSUExampleScenario.node[283].veinsmobility 	totalTime 	226.7
scalar RSUExampleScenario.node[283].veinsmobility 	stopTime 	1924.9
scalar RSUExampleScenario.node[283].veinsmobility 	minSpeed 	0.25100318106287
scalar RSUExampleScenario.node[283].veinsmobility 	maxSpeed 	18.999969195062
scalar RSUExampleScenario.node[283].veinsmobility 	totalDistance 	3409.5143788132
scalar RSUExampleScenario.node[283].veinsmobility 	totalCO2Emission 	709.92685609781
scalar RSUExampleScenario.node[284].veinsmobility 	startTime 	1704.1
scalar RSUExampleScenario.node[284].veinsmobility 	totalTime 	226.7
scalar RSUExampleScenario.node[284].veinsmobility 	stopTime 	1930.9
scalar RSUExampleScenario.node[284].veinsmobility 	minSpeed 	0.25715753258765
scalar RSUExampleScenario.node[284].veinsmobility 	maxSpeed 	18.999846926422
scalar RSUExampleScenario.node[284].veinsmobility 	totalDistance 	3409.5760586409
scalar RSUExampleScenario.node[284].veinsmobility 	totalCO2Emission 	701.99063255398
scalar RSUExampleScenario.node[285].veinsmobility 	startTime 	1710.1
scalar RSUExampleScenario.node[285].veinsmobility 	totalTime 	226.9
scalar RSUExampleScenario.node[285].veinsmobility 	stopTime 	1937.1
scalar RSUExampleScenario.node[285].veinsmobility 	minSpeed 	0.25121659346949
scalar RSUExampleScenario.node[285].veinsmobility 	maxSpeed 	18.999908979149
scalar RSUExampleScenario.node[285].veinsmobility 	totalDistance 	3409.8702543169
scalar RSUExampleScenario.node[285].veinsmobility 	totalCO2Emission 	707.79265279184
scalar RSUExampleScenario.node[286].veinsmobility 	startTime 	1716.1
scalar RSUExampleScenario.node[286].veinsmobility 	totalTime 	226.8
scalar RSUExampleScenario.node[286].veinsmobility 	stopTime 	1943
scalar RSUExampleScenario.node[286].veinsmobility 	minSpeed 	0.24722148989025
scalar RSUExampleScenario.node[286].veinsmobility 	maxSpeed 	18.999995744412
scalar RSUExampleScenario.node[286].veinsmobility 	totalDistance 	3409.6486166392
scalar RSUExampleScenario.node[286].veinsmobility 	totalCO2Emission 	709.78234279946
scalar RSUExampleScenario.node[287].veinsmobility 	startTime 	1722.1
scalar RSUExampleScenario.node[287].veinsmobility 	totalTime 	226.9
scalar RSUExampleScenario.node[287].veinsmobility 	stopTime 	1949.1
scalar RSUExampleScenario.node[287].veinsmobility 	minSpeed 	0.24724303366942
scalar RSUExampleScenario.node[287].veinsmobility 	maxSpeed 	18.999765760766
scalar RSUExampleScenario.node[287].veinsmobility 	totalDistance 	3409.194123613
scalar RSUExampleScenario.node[287].veinsmobility 	totalCO2Emission 	704.61582875766
scalar RSUExampleScenario.node[288].veinsmobility 	startTime 	1728.1
scalar RSUExampleScenario.node[288].veinsmobility 	totalTime 	226.8
scalar RSUExampleScenario.node[288].veinsmobility 	stopTime 	1955
scalar RSUExampleScenario.node[288].veinsmobility 	minSpeed 	0.25759616076737
scalar RSUExampleScenario.node[288].veinsmobility 	maxSpeed 	18.999659500197
scalar RSUExampleScenario.node[288].veinsmobility 	totalDistance 	3409.7157462068
scalar RSUExampleScenario.node[288].veinsmobility 	totalCO2Emission 	706.55241078024
scalar RSUExampleScenario.node[289].veinsmobility 	startTime 	1734.1
scalar RSUExampleScenario.node[289].veinsmobility 	totalTime 	226.8
scalar RSUExampleScenario.node[289].veinsmobility 	stopTime 	1961
scalar RSUExampleScenario.node[289].veinsmobility 	minSpeed 	0.25807042173715
scalar RSUExampleScenario.node[289].veinsmobility 	maxSpeed 	18.999708965709
scalar RSUExampleScenario.node[289].veinsmobility 	totalDistance 	3409.3610079957
scalar RSUExampleScenario.node[289].veinsmobility 	totalCO2Emission 	706.31595528871
scalar RSUExampleScenario.node[290].veinsmobility 	startTime 	1740.1
scalar RSUExampleScenario.node[290].veinsmobility 	totalTime 	226.7
scalar RSUExampleScenario.node[290].veinsmobility 	stopTime 	1966.9
scalar RSUExampleScenario.node[290].veinsmobility 	minSpeed 	0.259800327342
scalar RSUExampleScenario.node[290].veinsmobility 	maxSpeed 	18.999516674904
scalar RSUExampleScenario.node[290].veinsmobility 	totalDistance 	3409.3261810748
scalar RSUExampleScenario.node[290].veinsmobility 	totalCO2Emission 	706.41341572905
scalar RSUExampleScenario.node[291].veinsmobility 	startTime 	1746.1
scalar RSUExampleScenario.node[291].veinsmobility 	totalTime 	226.8
scalar RSUExampleScenario.node[291].veinsmobility 	stopTime 	1973
scalar RSUExampleScenario.node[291].veinsmobility 	minSpeed 	0.25621260967478
scalar RSUExampleScenario.node[291].veinsmobility 	maxSpeed 	18.999948819382
scalar RSUExampleScenario.node[291].veinsmobility 	totalDistance 	3409.6576358465
scalar RSUExampleScenario.node[291].veinsmobility 	totalCO2Emission 	704.71949834734
scalar RSUExampleScenario.node[292].veinsmobility 	startTime 	1752.1
scalar RSUExampleScenario.node[292].veinsmobility 	totalTime 	227
scalar RSUExampleScenario.node[292].veinsmobility 	stopTime 	1979.2
scalar RSUExampleScenario.node[292].veinsmobility 	minSpeed 	0.25338028510916
scalar RSUExampleScenario.node[292].veinsmobility 	maxSpeed 	18.999829650426
scalar RSUExampleScenario.node[292].veinsmobility 	totalDistance 	3409.9795489852
scalar RSUExampleScenario.node[292].veinsmobility 	totalCO2Emission 	706.68387575529
scalar RSUExampleScenario.node[293].veinsmobility 	startTime 	1758.1
scalar RSUExampleScenario.node[293].veinsmobility 	totalTime 	227
scalar RSUExampleScenario.node[293].veinsmobility 	stopTime 	1985.2
scalar RSUExampleScenario.node[293].veinsmobility 	minSpeed 	0.25917939833528
scalar RSUExampleScenario.node[293].veinsmobility 	maxSpeed 	18.999970754287
scalar RSUExampleScenario.node[293].veinsmobility 	totalDistance 	3409.447193748
scalar RSUExampleScenario.node[293].veinsmobility 	totalCO2Emission 	708.00491224914
scalar RSUExampleScenario.node[294].veinsmobility 	startTime 	1764.1
scalar RSUExampleScenario.node[294].veinsmobility 	totalTime 	226.8
scalar RSUExampleScenario.node[294].veinsmobility 	stopTime 	1991
scalar RSUExampleScenario.node[294].veinsmobility 	minSpeed 	0.25088702930696
scalar RSUExampleScenario.node[294].veinsmobility 	maxSpeed 	18.99985347935
scalar RSUExampleScenario.node[294].veinsmobility 	totalDistance 	3409.5492088754
scalar RSUExampleScenario.node[294].veinsmobility 	totalCO2Emission 	708.80232637744
scalar RSUExampleScenario.node[295].veinsmobility 	startTime 	1770.1
scalar RSUExampleScenario.node[295].veinsmobility 	totalTime 	226.9
scalar RSUExampleScenario.node[295].veinsmobility 	stopTime 	1997.1
scalar RSUExampleScenario.node[295].veinsmobility 	minSpeed 	0.25338708002027
scalar RSUExampleScenario.node[295].veinsmobility 	maxSpeed 	18.999494893942
scalar RSUExampleScenario.node[295].veinsmobility 	totalDistance 	3409.3523842815
scalar RSUExampleScenario.node[295].veinsmobility 	totalCO2Emission 	706.38072430207
scalar RSUExampleScenario.node[296].veinsmobility 	startTime 	1776.1
scalar RSUExampleScenario.node[296].veinsmobility 	totalTime 	223.8
scalar RSUExampleScenario.node[296].veinsmobility 	stopTime 	2000
scalar RSUExampleScenario.node[296].veinsmobility 	minSpeed 	0.25112476645759
scalar RSUExampleScenario.node[296].veinsmobility 	maxSpeed 	18.999976900262
scalar RSUExampleScenario.node[296].veinsmobility 	totalDistance 	3389.3192886648
scalar RSUExampleScenario.node[296].veinsmobility 	totalCO2Emission 	690.53239441053
scalar RSUExampleScenario.node[297].veinsmobility 	startTime 	1782.1
scalar RSUExampleScenario.node[297].veinsmobility 	totalTime 	217.8
scalar RSUExampleScenario.node[297].veinsmobility 	stopTime 	2000
scalar RSUExampleScenario.node[297].veinsmobility 	minSpeed 	0.25749674781784
scalar RSUExampleScenario.node[297].veinsmobility 	maxSpeed 	18.999942948271
scalar RSUExampleScenario.node[297].veinsmobility 	totalDistance 	3328.639589688
scalar RSUExampleScenario.node[297].veinsmobility 	totalCO2Emission 	681.09460969077
scalar RSUExampleScenario.node[298].veinsmobility 	startTime 	1788.1
scalar RSUExampleScenario.node[298].veinsmobility 	totalTime 	211.8
scalar RSUExampleScenario.node[298].veinsmobility 	stopTime 	2000
scalar RSUExampleScenario.node[298].veinsmobility 	minSpeed 	0.25646146002132
scalar RSUExampleScenario.node[298].veinsmobility 	maxSpeed 	18.999986453867
scalar RSUExampleScenario.node[298].veinsmobility 	totalDistance 	3241.9805408457
scalar RSUExampleScenario.node[298].veinsmobility 	totalCO2Emission 	670.01580116348
scalar RSUExampleScenario.node[299].veinsmobility 	startTime 	1794.1
scalar RSUExampleScenario.node[299].veinsmobility 	totalTime 	205.8
scalar RSUExampleScenario.node[299].veinsmobility 	stopTime 	2000
scalar RSUExampleScenario.node[299].veinsmobility 	minSpeed 	0.25817367905658
scalar RSUExampleScenario.node[299].veinsmobility 	maxSpeed 	18.999599182613
scalar RSUExampleScenario.node[299].veinsmobility 	totalDistance 	3160.0782069255
scalar RSUExampleScenario.node[299].veinsmobility 	totalCO2Emission 	652.53719963251
