version 2
run statisticLeach-350-20150323-07:22:43-11044
attr c 25
attr configname statisticLeach
attr datetime 20150323-07:22:43
attr experiment statisticLeach
attr inifile omnetpp.ini
attr iterationvars "$p=1/15, $c=25"
attr iterationvars2 "$p=1/15, $c=25, $repetition=0"
attr measurement "$p=1/15, $c=25"
attr network RSUExampleScenario
attr p 1/15
attr processid 11044
attr repetition 0
attr replication #0
attr resultdir results
attr runnumber 350
attr seedset 350

scalar . 	c 	25
scalar RSUExampleScenario.node[0].appl 	meanClusterNodes 	1
scalar RSUExampleScenario.node[0].appl 	meanClusterHeadUtility 	18.465399404454
scalar RSUExampleScenario.node[0].appl 	NumberofCH 	0.054054054054054
scalar RSUExampleScenario.node[0].appl 	NumberofON 	0.40540540540541
scalar RSUExampleScenario.node[0].appl 	NumberofFN 	0.54054054054054
scalar RSUExampleScenario.node[0].veinsmobility 	startTime 	0.1
scalar RSUExampleScenario.node[0].veinsmobility 	totalTime 	449.9
scalar RSUExampleScenario.node[0].veinsmobility 	stopTime 	450
scalar RSUExampleScenario.node[0].veinsmobility 	minSpeed 	0
scalar RSUExampleScenario.node[0].veinsmobility 	maxSpeed 	13.999924016858
scalar RSUExampleScenario.node[0].veinsmobility 	totalDistance 	3132.5004725739
scalar RSUExampleScenario.node[0].veinsmobility 	totalCO2Emission 	837.78784749884
scalar RSUExampleScenario.node[1].appl 	meanClusterNodes 	0
scalar RSUExampleScenario.node[1].appl 	meanClusterHeadUtility 	0
scalar RSUExampleScenario.node[1].appl 	NumberofCH 	0
scalar RSUExampleScenario.node[1].appl 	NumberofON 	0.27027027027027
scalar RSUExampleScenario.node[1].appl 	NumberofFN 	0.72972972972973
scalar RSUExampleScenario.node[1].veinsmobility 	startTime 	2.5
scalar RSUExampleScenario.node[1].veinsmobility 	totalTime 	447.5
scalar RSUExampleScenario.node[1].veinsmobility 	stopTime 	450
scalar RSUExampleScenario.node[1].veinsmobility 	minSpeed 	0
scalar RSUExampleScenario.node[1].veinsmobility 	maxSpeed 	13.999991807516
scalar RSUExampleScenario.node[1].veinsmobility 	totalDistance 	3081.2755139217
scalar RSUExampleScenario.node[1].veinsmobility 	totalCO2Emission 	829.24801085294
scalar RSUExampleScenario.node[10].appl 	meanClusterNodes 	8.5
scalar RSUExampleScenario.node[10].appl 	meanClusterHeadUtility 	17.242529610738
scalar RSUExampleScenario.node[10].appl 	NumberofCH 	0.054054054054054
scalar RSUExampleScenario.node[10].appl 	NumberofON 	0.45945945945946
scalar RSUExampleScenario.node[10].appl 	NumberofFN 	0.48648648648649
scalar RSUExampleScenario.node[10].veinsmobility 	startTime 	24.2
scalar RSUExampleScenario.node[10].veinsmobility 	totalTime 	425.8
scalar RSUExampleScenario.node[10].veinsmobility 	stopTime 	450
scalar RSUExampleScenario.node[10].veinsmobility 	minSpeed 	0
scalar RSUExampleScenario.node[10].veinsmobility 	maxSpeed 	13.999999534932
scalar RSUExampleScenario.node[10].veinsmobility 	totalDistance 	2787.8306779205
scalar RSUExampleScenario.node[10].veinsmobility 	totalCO2Emission 	759.22246736533
scalar RSUExampleScenario.node[11].appl 	meanClusterNodes 	0
scalar RSUExampleScenario.node[11].appl 	meanClusterHeadUtility 	0
scalar RSUExampleScenario.node[11].appl 	NumberofCH 	0
scalar RSUExampleScenario.node[11].appl 	NumberofON 	0.62162162162162
scalar RSUExampleScenario.node[11].appl 	NumberofFN 	0.37837837837838
scalar RSUExampleScenario.node[11].veinsmobility 	startTime 	26.6
scalar RSUExampleScenario.node[11].veinsmobility 	totalTime 	423.4
scalar RSUExampleScenario.node[11].veinsmobility 	stopTime 	450
scalar RSUExampleScenario.node[11].veinsmobility 	minSpeed 	0
scalar RSUExampleScenario.node[11].veinsmobility 	maxSpeed 	13.999836615634
scalar RSUExampleScenario.node[11].veinsmobility 	totalDistance 	2757.8472777525
scalar RSUExampleScenario.node[11].veinsmobility 	totalCO2Emission 	752.20828374333
scalar RSUExampleScenario.node[12].appl 	meanClusterNodes 	5
scalar RSUExampleScenario.node[12].appl 	meanClusterHeadUtility 	19.465059746862
scalar RSUExampleScenario.node[12].appl 	NumberofCH 	0.054054054054054
scalar RSUExampleScenario.node[12].appl 	NumberofON 	0.7027027027027
scalar RSUExampleScenario.node[12].appl 	NumberofFN 	0.24324324324324
scalar RSUExampleScenario.node[12].veinsmobility 	startTime 	29
scalar RSUExampleScenario.node[12].veinsmobility 	totalTime 	421
scalar RSUExampleScenario.node[12].veinsmobility 	stopTime 	450
scalar RSUExampleScenario.node[12].veinsmobility 	minSpeed 	0
scalar RSUExampleScenario.node[12].veinsmobility 	maxSpeed 	13.999888657164
scalar RSUExampleScenario.node[12].veinsmobility 	totalDistance 	2717.9449897079
scalar RSUExampleScenario.node[12].veinsmobility 	totalCO2Emission 	747.45940934405
scalar RSUExampleScenario.node[13].appl 	meanClusterNodes 	3.5
scalar RSUExampleScenario.node[13].appl 	meanClusterHeadUtility 	8.3168618758151
scalar RSUExampleScenario.node[13].appl 	NumberofCH 	0.10810810810811
scalar RSUExampleScenario.node[13].appl 	NumberofON 	0.64864864864865
scalar RSUExampleScenario.node[13].appl 	NumberofFN 	0.24324324324324
scalar RSUExampleScenario.node[13].veinsmobility 	startTime 	31.4
scalar RSUExampleScenario.node[13].veinsmobility 	totalTime 	418.6
scalar RSUExampleScenario.node[13].veinsmobility 	stopTime 	450
scalar RSUExampleScenario.node[13].veinsmobility 	minSpeed 	0
scalar RSUExampleScenario.node[13].veinsmobility 	maxSpeed 	13.999980261249
scalar RSUExampleScenario.node[13].veinsmobility 	totalDistance 	2685.243797967
scalar RSUExampleScenario.node[13].veinsmobility 	totalCO2Emission 	741.37283055484
scalar RSUExampleScenario.node[14].appl 	meanClusterNodes 	0
scalar RSUExampleScenario.node[14].appl 	meanClusterHeadUtility 	0
scalar RSUExampleScenario.node[14].appl 	NumberofCH 	0
scalar RSUExampleScenario.node[14].appl 	NumberofON 	0.7027027027027
scalar RSUExampleScenario.node[14].appl 	NumberofFN 	0.2972972972973
scalar RSUExampleScenario.node[14].veinsmobility 	startTime 	33.8
scalar RSUExampleScenario.node[14].veinsmobility 	totalTime 	416.2
scalar RSUExampleScenario.node[14].veinsmobility 	stopTime 	450
scalar RSUExampleScenario.node[14].veinsmobility 	minSpeed 	0
scalar RSUExampleScenario.node[14].veinsmobility 	maxSpeed 	13.999711697032
scalar RSUExampleScenario.node[14].veinsmobility 	totalDistance 	2648.5942744665
scalar RSUExampleScenario.node[14].veinsmobility 	totalCO2Emission 	734.60708997588
scalar RSUExampleScenario.node[15].appl 	meanClusterNodes 	15
scalar RSUExampleScenario.node[15].appl 	meanClusterHeadUtility 	34.245968700627
scalar RSUExampleScenario.node[15].appl 	NumberofCH 	0.027027027027027
scalar RSUExampleScenario.node[15].appl 	NumberofON 	0.64864864864865
scalar RSUExampleScenario.node[15].appl 	NumberofFN 	0.32432432432432
scalar RSUExampleScenario.node[15].veinsmobility 	startTime 	36.2
scalar RSUExampleScenario.node[15].veinsmobility 	totalTime 	413.8
scalar RSUExampleScenario.node[15].veinsmobility 	stopTime 	450
scalar RSUExampleScenario.node[15].veinsmobility 	minSpeed 	0
scalar RSUExampleScenario.node[15].veinsmobility 	maxSpeed 	13.999974817007
scalar RSUExampleScenario.node[15].veinsmobility 	totalDistance 	2618.5927948668
scalar RSUExampleScenario.node[15].veinsmobility 	totalCO2Emission 	730.36311542457
scalar RSUExampleScenario.node[16].appl 	meanClusterNodes 	11
scalar RSUExampleScenario.node[16].appl 	meanClusterHeadUtility 	17.034680956148
scalar RSUExampleScenario.node[16].appl 	NumberofCH 	0.054054054054054
scalar RSUExampleScenario.node[16].appl 	NumberofON 	0.45945945945946
scalar RSUExampleScenario.node[16].appl 	NumberofFN 	0.48648648648649
scalar RSUExampleScenario.node[16].veinsmobility 	startTime 	38.6
scalar RSUExampleScenario.node[16].veinsmobility 	totalTime 	411.4
scalar RSUExampleScenario.node[16].veinsmobility 	stopTime 	450
scalar RSUExampleScenario.node[16].veinsmobility 	minSpeed 	0
scalar RSUExampleScenario.node[16].veinsmobility 	maxSpeed 	13.999816174787
scalar RSUExampleScenario.node[16].veinsmobility 	totalDistance 	2578.1967152288
scalar RSUExampleScenario.node[16].veinsmobility 	totalCO2Emission 	723.97898456349
scalar RSUExampleScenario.node[17].appl 	meanClusterNodes 	3.5
scalar RSUExampleScenario.node[17].appl 	meanClusterHeadUtility 	16.138146806316
scalar RSUExampleScenario.node[17].appl 	NumberofCH 	0.054054054054054
scalar RSUExampleScenario.node[17].appl 	NumberofON 	0.27027027027027
scalar RSUExampleScenario.node[17].appl 	NumberofFN 	0.67567567567568
scalar RSUExampleScenario.node[17].veinsmobility 	startTime 	41
scalar RSUExampleScenario.node[17].veinsmobility 	totalTime 	409
scalar RSUExampleScenario.node[17].veinsmobility 	stopTime 	450
scalar RSUExampleScenario.node[17].veinsmobility 	minSpeed 	0
scalar RSUExampleScenario.node[17].veinsmobility 	maxSpeed 	13.999986645342
scalar RSUExampleScenario.node[17].veinsmobility 	totalDistance 	2542.6501734317
scalar RSUExampleScenario.node[17].veinsmobility 	totalCO2Emission 	716.00728474928
scalar RSUExampleScenario.node[18].appl 	meanClusterNodes 	7.75
scalar RSUExampleScenario.node[18].appl 	meanClusterHeadUtility 	8.5191405374944
scalar RSUExampleScenario.node[18].appl 	NumberofCH 	0.10810810810811
scalar RSUExampleScenario.node[18].appl 	NumberofON 	0.32432432432432
scalar RSUExampleScenario.node[18].appl 	NumberofFN 	0.56756756756757
scalar RSUExampleScenario.node[18].veinsmobility 	startTime 	43.4
scalar RSUExampleScenario.node[18].veinsmobility 	totalTime 	406.6
scalar RSUExampleScenario.node[18].veinsmobility 	stopTime 	450
scalar RSUExampleScenario.node[18].veinsmobility 	minSpeed 	0
scalar RSUExampleScenario.node[18].veinsmobility 	maxSpeed 	13.999939136019
scalar RSUExampleScenario.node[18].veinsmobility 	totalDistance 	2505.9492923825
scalar RSUExampleScenario.node[18].veinsmobility 	totalCO2Emission 	713.3579088684
scalar RSUExampleScenario.node[19].appl 	meanClusterNodes 	0
scalar RSUExampleScenario.node[19].appl 	meanClusterHeadUtility 	0
scalar RSUExampleScenario.node[19].appl 	NumberofCH 	0
scalar RSUExampleScenario.node[19].appl 	NumberofON 	0.43243243243243
scalar RSUExampleScenario.node[19].appl 	NumberofFN 	0.56756756756757
scalar RSUExampleScenario.node[19].veinsmobility 	startTime 	45.8
scalar RSUExampleScenario.node[19].veinsmobility 	totalTime 	404.2
scalar RSUExampleScenario.node[19].veinsmobility 	stopTime 	450
scalar RSUExampleScenario.node[19].veinsmobility 	minSpeed 	0
scalar RSUExampleScenario.node[19].veinsmobility 	maxSpeed 	13.999888791372
scalar RSUExampleScenario.node[19].veinsmobility 	totalDistance 	2476.6189621112
scalar RSUExampleScenario.node[19].veinsmobility 	totalCO2Emission 	708.84708690387
scalar RSUExampleScenario.node[2].appl 	meanClusterNodes 	5.25
scalar RSUExampleScenario.node[2].appl 	meanClusterHeadUtility 	8.9399468509515
scalar RSUExampleScenario.node[2].appl 	NumberofCH 	0.10810810810811
scalar RSUExampleScenario.node[2].appl 	NumberofON 	0.35135135135135
scalar RSUExampleScenario.node[2].appl 	NumberofFN 	0.54054054054054
scalar RSUExampleScenario.node[2].veinsmobility 	startTime 	4.9
scalar RSUExampleScenario.node[2].veinsmobility 	totalTime 	445.1
scalar RSUExampleScenario.node[2].veinsmobility 	stopTime 	450
scalar RSUExampleScenario.node[2].veinsmobility 	minSpeed 	0
scalar RSUExampleScenario.node[2].veinsmobility 	maxSpeed 	13.999954410212
scalar RSUExampleScenario.node[2].veinsmobility 	totalDistance 	3033.8327588821
scalar RSUExampleScenario.node[2].veinsmobility 	totalCO2Emission 	822.77038065505
scalar RSUExampleScenario.node[20].appl 	meanClusterNodes 	0
scalar RSUExampleScenario.node[20].appl 	meanClusterHeadUtility 	0
scalar RSUExampleScenario.node[20].appl 	NumberofCH 	0
scalar RSUExampleScenario.node[20].appl 	NumberofON 	0.24324324324324
scalar RSUExampleScenario.node[20].appl 	NumberofFN 	0.75675675675676
scalar RSUExampleScenario.node[20].veinsmobility 	startTime 	48.3
scalar RSUExampleScenario.node[20].veinsmobility 	totalTime 	401.7
scalar RSUExampleScenario.node[20].veinsmobility 	stopTime 	450
scalar RSUExampleScenario.node[20].veinsmobility 	minSpeed 	0
scalar RSUExampleScenario.node[20].veinsmobility 	maxSpeed 	13.999984182557
scalar RSUExampleScenario.node[20].veinsmobility 	totalDistance 	2437.4697238043
scalar RSUExampleScenario.node[20].veinsmobility 	totalCO2Emission 	699.0194522144
scalar RSUExampleScenario.node[21].appl 	meanClusterNodes 	5.25
scalar RSUExampleScenario.node[21].appl 	meanClusterHeadUtility 	8.8944486554681
scalar RSUExampleScenario.node[21].appl 	NumberofCH 	0.10810810810811
scalar RSUExampleScenario.node[21].appl 	NumberofON 	0.51351351351351
scalar RSUExampleScenario.node[21].appl 	NumberofFN 	0.37837837837838
scalar RSUExampleScenario.node[21].veinsmobility 	startTime 	50.7
scalar RSUExampleScenario.node[21].veinsmobility 	totalTime 	399.3
scalar RSUExampleScenario.node[21].veinsmobility 	stopTime 	450
scalar RSUExampleScenario.node[21].veinsmobility 	minSpeed 	0
scalar RSUExampleScenario.node[21].veinsmobility 	maxSpeed 	13.999904188514
scalar RSUExampleScenario.node[21].veinsmobility 	totalDistance 	2406.7917278953
scalar RSUExampleScenario.node[21].veinsmobility 	totalCO2Emission 	694.65337107096
scalar RSUExampleScenario.node[22].appl 	meanClusterNodes 	5.5
scalar RSUExampleScenario.node[22].appl 	meanClusterHeadUtility 	17.514191788026
scalar RSUExampleScenario.node[22].appl 	NumberofCH 	0.054054054054054
scalar RSUExampleScenario.node[22].appl 	NumberofON 	0.43243243243243
scalar RSUExampleScenario.node[22].appl 	NumberofFN 	0.51351351351351
scalar RSUExampleScenario.node[22].veinsmobility 	startTime 	53.1
scalar RSUExampleScenario.node[22].veinsmobility 	totalTime 	396.9
scalar RSUExampleScenario.node[22].veinsmobility 	stopTime 	450
scalar RSUExampleScenario.node[22].veinsmobility 	minSpeed 	0
scalar RSUExampleScenario.node[22].veinsmobility 	maxSpeed 	13.999890752132
scalar RSUExampleScenario.node[22].veinsmobility 	totalDistance 	2369.4397962371
scalar RSUExampleScenario.node[22].veinsmobility 	totalCO2Emission 	690.93551066181
scalar RSUExampleScenario.node[23].appl 	meanClusterNodes 	6.5
scalar RSUExampleScenario.node[23].appl 	meanClusterHeadUtility 	17.510324411443
scalar RSUExampleScenario.node[23].appl 	NumberofCH 	0.054054054054054
scalar RSUExampleScenario.node[23].appl 	NumberofON 	0.48648648648649
scalar RSUExampleScenario.node[23].appl 	NumberofFN 	0.45945945945946
scalar RSUExampleScenario.node[23].veinsmobility 	startTime 	55.5
scalar RSUExampleScenario.node[23].veinsmobility 	totalTime 	394.5
scalar RSUExampleScenario.node[23].veinsmobility 	stopTime 	450
scalar RSUExampleScenario.node[23].veinsmobility 	minSpeed 	0
scalar RSUExampleScenario.node[23].veinsmobility 	maxSpeed 	13.99968661801
scalar RSUExampleScenario.node[23].veinsmobility 	totalDistance 	2340.0752832307
scalar RSUExampleScenario.node[23].veinsmobility 	totalCO2Emission 	682.14828161194
scalar RSUExampleScenario.node[24].appl 	meanClusterNodes 	0
scalar RSUExampleScenario.node[24].appl 	meanClusterHeadUtility 	0
scalar RSUExampleScenario.node[24].appl 	NumberofCH 	0
scalar RSUExampleScenario.node[24].appl 	NumberofON 	0.48648648648649
scalar RSUExampleScenario.node[24].appl 	NumberofFN 	0.51351351351351
scalar RSUExampleScenario.node[24].veinsmobility 	startTime 	57.9
scalar RSUExampleScenario.node[24].veinsmobility 	totalTime 	392.1
scalar RSUExampleScenario.node[24].veinsmobility 	stopTime 	450
scalar RSUExampleScenario.node[24].veinsmobility 	minSpeed 	0
scalar RSUExampleScenario.node[24].veinsmobility 	maxSpeed 	13.999949989633
scalar RSUExampleScenario.node[24].veinsmobility 	totalDistance 	2301.7571822822
scalar RSUExampleScenario.node[24].veinsmobility 	totalCO2Emission 	676.06088137402
scalar RSUExampleScenario.node[25].appl 	meanClusterNodes 	4.5
scalar RSUExampleScenario.node[25].appl 	meanClusterHeadUtility 	15.696838160056
scalar RSUExampleScenario.node[25].appl 	NumberofCH 	0.054054054054054
scalar RSUExampleScenario.node[25].appl 	NumberofON 	0.64864864864865
scalar RSUExampleScenario.node[25].appl 	NumberofFN 	0.2972972972973
scalar RSUExampleScenario.node[25].veinsmobility 	startTime 	60.3
scalar RSUExampleScenario.node[25].veinsmobility 	totalTime 	389.7
scalar RSUExampleScenario.node[25].veinsmobility 	stopTime 	450
scalar RSUExampleScenario.node[25].veinsmobility 	minSpeed 	0
scalar RSUExampleScenario.node[25].veinsmobility 	maxSpeed 	13.999946381357
scalar RSUExampleScenario.node[25].veinsmobility 	totalDistance 	2273.8125898086
scalar RSUExampleScenario.node[25].veinsmobility 	totalCO2Emission 	669.02408796682
scalar RSUExampleScenario.node[26].appl 	meanClusterNodes 	10.5
scalar RSUExampleScenario.node[26].appl 	meanClusterHeadUtility 	16.888282400834
scalar RSUExampleScenario.node[26].appl 	NumberofCH 	0.054054054054054
scalar RSUExampleScenario.node[26].appl 	NumberofON 	0.32432432432432
scalar RSUExampleScenario.node[26].appl 	NumberofFN 	0.62162162162162
scalar RSUExampleScenario.node[26].veinsmobility 	startTime 	62.7
scalar RSUExampleScenario.node[26].veinsmobility 	totalTime 	387.3
scalar RSUExampleScenario.node[26].veinsmobility 	stopTime 	450
scalar RSUExampleScenario.node[26].veinsmobility 	minSpeed 	0
scalar RSUExampleScenario.node[26].veinsmobility 	maxSpeed 	13.999659534672
scalar RSUExampleScenario.node[26].veinsmobility 	totalDistance 	2234.0157119547
scalar RSUExampleScenario.node[26].veinsmobility 	totalCO2Emission 	665.82556391476
scalar RSUExampleScenario.node[27].appl 	meanClusterNodes 	5.5
scalar RSUExampleScenario.node[27].appl 	meanClusterHeadUtility 	8.779476930815
scalar RSUExampleScenario.node[27].appl 	NumberofCH 	0.10810810810811
scalar RSUExampleScenario.node[27].appl 	NumberofON 	0.27027027027027
scalar RSUExampleScenario.node[27].appl 	NumberofFN 	0.62162162162162
scalar RSUExampleScenario.node[27].veinsmobility 	startTime 	65.1
scalar RSUExampleScenario.node[27].veinsmobility 	totalTime 	384.9
scalar RSUExampleScenario.node[27].veinsmobility 	stopTime 	450
scalar RSUExampleScenario.node[27].veinsmobility 	minSpeed 	0
scalar RSUExampleScenario.node[27].veinsmobility 	maxSpeed 	13.99980281353
scalar RSUExampleScenario.node[27].veinsmobility 	totalDistance 	2204.5467269946
scalar RSUExampleScenario.node[27].veinsmobility 	totalCO2Emission 	661.75149739393
scalar RSUExampleScenario.node[28].appl 	meanClusterNodes 	5
scalar RSUExampleScenario.node[28].appl 	meanClusterHeadUtility 	17.125010590074
scalar RSUExampleScenario.node[28].appl 	NumberofCH 	0.054054054054054
scalar RSUExampleScenario.node[28].appl 	NumberofON 	0.51351351351351
scalar RSUExampleScenario.node[28].appl 	NumberofFN 	0.43243243243243
scalar RSUExampleScenario.node[28].veinsmobility 	startTime 	67.5
scalar RSUExampleScenario.node[28].veinsmobility 	totalTime 	382.5
scalar RSUExampleScenario.node[28].veinsmobility 	stopTime 	450
scalar RSUExampleScenario.node[28].veinsmobility 	minSpeed 	0
scalar RSUExampleScenario.node[28].veinsmobility 	maxSpeed 	13.999966145623
scalar RSUExampleScenario.node[28].veinsmobility 	totalDistance 	2166.4183618656
scalar RSUExampleScenario.node[28].veinsmobility 	totalCO2Emission 	655.3764037908
scalar RSUExampleScenario.node[29].appl 	meanClusterNodes 	0
scalar RSUExampleScenario.node[29].appl 	meanClusterHeadUtility 	0
scalar RSUExampleScenario.node[29].appl 	NumberofCH 	0
scalar RSUExampleScenario.node[29].appl 	NumberofON 	0.32432432432432
scalar RSUExampleScenario.node[29].appl 	NumberofFN 	0.67567567567568
scalar RSUExampleScenario.node[29].veinsmobility 	startTime 	69.9
scalar RSUExampleScenario.node[29].veinsmobility 	totalTime 	380.1
scalar RSUExampleScenario.node[29].veinsmobility 	stopTime 	450
scalar RSUExampleScenario.node[29].veinsmobility 	minSpeed 	0
scalar RSUExampleScenario.node[29].veinsmobility 	maxSpeed 	13.999746088847
scalar RSUExampleScenario.node[29].veinsmobility 	totalDistance 	2135.8961586022
scalar RSUExampleScenario.node[29].veinsmobility 	totalCO2Emission 	650.35547916617
scalar RSUExampleScenario.node[3].appl 	meanClusterNodes 	7.25
scalar RSUExampleScenario.node[3].appl 	meanClusterHeadUtility 	8.4689253180885
scalar RSUExampleScenario.node[3].appl 	NumberofCH 	0.10810810810811
scalar RSUExampleScenario.node[3].appl 	NumberofON 	0.54054054054054
scalar RSUExampleScenario.node[3].appl 	NumberofFN 	0.35135135135135
scalar RSUExampleScenario.node[3].veinsmobility 	startTime 	7.3
scalar RSUExampleScenario.node[3].veinsmobility 	totalTime 	442.7
scalar RSUExampleScenario.node[3].veinsmobility 	stopTime 	450
scalar RSUExampleScenario.node[3].veinsmobility 	minSpeed 	0
scalar RSUExampleScenario.node[3].veinsmobility 	maxSpeed 	13.999865742484
scalar RSUExampleScenario.node[3].veinsmobility 	totalDistance 	2997.0040220844
scalar RSUExampleScenario.node[3].veinsmobility 	totalCO2Emission 	811.8377182612
scalar RSUExampleScenario.node[30].appl 	meanClusterNodes 	1.5
scalar RSUExampleScenario.node[30].appl 	meanClusterHeadUtility 	16.202998146508
scalar RSUExampleScenario.node[30].appl 	NumberofCH 	0.054054054054054
scalar RSUExampleScenario.node[30].appl 	NumberofON 	0.59459459459459
scalar RSUExampleScenario.node[30].appl 	NumberofFN 	0.35135135135135
scalar RSUExampleScenario.node[30].veinsmobility 	startTime 	72.4
scalar RSUExampleScenario.node[30].veinsmobility 	totalTime 	377.6
scalar RSUExampleScenario.node[30].veinsmobility 	stopTime 	450
scalar RSUExampleScenario.node[30].veinsmobility 	minSpeed 	0
scalar RSUExampleScenario.node[30].veinsmobility 	maxSpeed 	13.99984732596
scalar RSUExampleScenario.node[30].veinsmobility 	totalDistance 	2099.5978433558
scalar RSUExampleScenario.node[30].veinsmobility 	totalCO2Emission 	643.55937138064
scalar RSUExampleScenario.node[31].appl 	meanClusterNodes 	0
scalar RSUExampleScenario.node[31].appl 	meanClusterHeadUtility 	0
scalar RSUExampleScenario.node[31].appl 	NumberofCH 	0
scalar RSUExampleScenario.node[31].appl 	NumberofON 	0.64864864864865
scalar RSUExampleScenario.node[31].appl 	NumberofFN 	0.35135135135135
scalar RSUExampleScenario.node[31].veinsmobility 	startTime 	74.8
scalar RSUExampleScenario.node[31].veinsmobility 	totalTime 	375.2
scalar RSUExampleScenario.node[31].veinsmobility 	stopTime 	450
scalar RSUExampleScenario.node[31].veinsmobility 	minSpeed 	0
scalar RSUExampleScenario.node[31].veinsmobility 	maxSpeed 	13.999940142157
scalar RSUExampleScenario.node[31].veinsmobility 	totalDistance 	2069.6755775789
scalar RSUExampleScenario.node[31].veinsmobility 	totalCO2Emission 	638.54964105984
scalar RSUExampleScenario.node[32].appl 	meanClusterNodes 	5
scalar RSUExampleScenario.node[32].appl 	meanClusterHeadUtility 	17.683935718849
scalar RSUExampleScenario.node[32].appl 	NumberofCH 	0.054054054054054
scalar RSUExampleScenario.node[32].appl 	NumberofON 	0.32432432432432
scalar RSUExampleScenario.node[32].appl 	NumberofFN 	0.62162162162162
scalar RSUExampleScenario.node[32].veinsmobility 	startTime 	77.2
scalar RSUExampleScenario.node[32].veinsmobility 	totalTime 	372.8
scalar RSUExampleScenario.node[32].veinsmobility 	stopTime 	450
scalar RSUExampleScenario.node[32].veinsmobility 	minSpeed 	0
scalar RSUExampleScenario.node[32].veinsmobility 	maxSpeed 	13.99994494051
scalar RSUExampleScenario.node[32].veinsmobility 	totalDistance 	2033.8050602149
scalar RSUExampleScenario.node[32].veinsmobility 	totalCO2Emission 	634.61896920398
scalar RSUExampleScenario.node[33].appl 	meanClusterNodes 	6.5
scalar RSUExampleScenario.node[33].appl 	meanClusterHeadUtility 	7.943848439657
scalar RSUExampleScenario.node[33].appl 	NumberofCH 	0.10810810810811
scalar RSUExampleScenario.node[33].appl 	NumberofON 	0.45945945945946
scalar RSUExampleScenario.node[33].appl 	NumberofFN 	0.43243243243243
scalar RSUExampleScenario.node[33].veinsmobility 	startTime 	79.6
scalar RSUExampleScenario.node[33].veinsmobility 	totalTime 	370.4
scalar RSUExampleScenario.node[33].veinsmobility 	stopTime 	450
scalar RSUExampleScenario.node[33].veinsmobility 	minSpeed 	0
scalar RSUExampleScenario.node[33].veinsmobility 	maxSpeed 	13.999920044609
scalar RSUExampleScenario.node[33].veinsmobility 	totalDistance 	1999.4620690358
scalar RSUExampleScenario.node[33].veinsmobility 	totalCO2Emission 	629.3294757875
scalar RSUExampleScenario.node[34].appl 	meanClusterNodes 	2.5
scalar RSUExampleScenario.node[34].appl 	meanClusterHeadUtility 	17.633558421211
scalar RSUExampleScenario.node[34].appl 	NumberofCH 	0.054054054054054
scalar RSUExampleScenario.node[34].appl 	NumberofON 	0.40540540540541
scalar RSUExampleScenario.node[34].appl 	NumberofFN 	0.54054054054054
scalar RSUExampleScenario.node[34].veinsmobility 	startTime 	82
scalar RSUExampleScenario.node[34].veinsmobility 	totalTime 	368
scalar RSUExampleScenario.node[34].veinsmobility 	stopTime 	450
scalar RSUExampleScenario.node[34].veinsmobility 	minSpeed 	0
scalar RSUExampleScenario.node[34].veinsmobility 	maxSpeed 	13.999901744011
scalar RSUExampleScenario.node[34].veinsmobility 	totalDistance 	1964.2493841368
scalar RSUExampleScenario.node[34].veinsmobility 	totalCO2Emission 	622.51017181899
scalar RSUExampleScenario.node[35].appl 	meanClusterNodes 	4.5
scalar RSUExampleScenario.node[35].appl 	meanClusterHeadUtility 	16.311518257606
scalar RSUExampleScenario.node[35].appl 	NumberofCH 	0.054054054054054
scalar RSUExampleScenario.node[35].appl 	NumberofON 	0.56756756756757
scalar RSUExampleScenario.node[35].appl 	NumberofFN 	0.37837837837838
scalar RSUExampleScenario.node[35].veinsmobility 	startTime 	84.4
scalar RSUExampleScenario.node[35].veinsmobility 	totalTime 	365.6
scalar RSUExampleScenario.node[35].veinsmobility 	stopTime 	450
scalar RSUExampleScenario.node[35].veinsmobility 	minSpeed 	0
scalar RSUExampleScenario.node[35].veinsmobility 	maxSpeed 	13.999899794632
scalar RSUExampleScenario.node[35].veinsmobility 	totalDistance 	1930.9177627007
scalar RSUExampleScenario.node[35].veinsmobility 	totalCO2Emission 	613.85103854175
scalar RSUExampleScenario.node[36].appl 	meanClusterNodes 	7.75
scalar RSUExampleScenario.node[36].appl 	meanClusterHeadUtility 	8.7745211385867
scalar RSUExampleScenario.node[36].appl 	NumberofCH 	0.10810810810811
scalar RSUExampleScenario.node[36].appl 	NumberofON 	0.35135135135135
scalar RSUExampleScenario.node[36].appl 	NumberofFN 	0.54054054054054
scalar RSUExampleScenario.node[36].veinsmobility 	startTime 	86.8
scalar RSUExampleScenario.node[36].veinsmobility 	totalTime 	363.2
scalar RSUExampleScenario.node[36].veinsmobility 	stopTime 	450
scalar RSUExampleScenario.node[36].veinsmobility 	minSpeed 	0
scalar RSUExampleScenario.node[36].veinsmobility 	maxSpeed 	13.999960896883
scalar RSUExampleScenario.node[36].veinsmobility 	totalDistance 	1897.2750397232
scalar RSUExampleScenario.node[36].veinsmobility 	totalCO2Emission 	609.12150258896
scalar RSUExampleScenario.node[37].appl 	meanClusterNodes 	2.5
scalar RSUExampleScenario.node[37].appl 	meanClusterHeadUtility 	7.9492090594149
scalar RSUExampleScenario.node[37].appl 	NumberofCH 	0.10810810810811
scalar RSUExampleScenario.node[37].appl 	NumberofON 	0.59459459459459
scalar RSUExampleScenario.node[37].appl 	NumberofFN 	0.2972972972973
scalar RSUExampleScenario.node[37].veinsmobility 	startTime 	89.2
scalar RSUExampleScenario.node[37].veinsmobility 	totalTime 	360.8
scalar RSUExampleScenario.node[37].veinsmobility 	stopTime 	450
scalar RSUExampleScenario.node[37].veinsmobility 	minSpeed 	0
scalar RSUExampleScenario.node[37].veinsmobility 	maxSpeed 	13.999993649989
scalar RSUExampleScenario.node[37].veinsmobility 	totalDistance 	1863.7713768488
scalar RSUExampleScenario.node[37].veinsmobility 	totalCO2Emission 	605.95845153898
scalar RSUExampleScenario.node[38].appl 	meanClusterNodes 	9
scalar RSUExampleScenario.node[38].appl 	meanClusterHeadUtility 	16.632029673693
scalar RSUExampleScenario.node[38].appl 	NumberofCH 	0.054054054054054
scalar RSUExampleScenario.node[38].appl 	NumberofON 	0.51351351351351
scalar RSUExampleScenario.node[38].appl 	NumberofFN 	0.43243243243243
scalar RSUExampleScenario.node[38].veinsmobility 	startTime 	91.6
scalar RSUExampleScenario.node[38].veinsmobility 	totalTime 	358.4
scalar RSUExampleScenario.node[38].veinsmobility 	stopTime 	450
scalar RSUExampleScenario.node[38].veinsmobility 	minSpeed 	0
scalar RSUExampleScenario.node[38].veinsmobility 	maxSpeed 	13.99975153106
scalar RSUExampleScenario.node[38].veinsmobility 	totalDistance 	1831.2382936197
scalar RSUExampleScenario.node[38].veinsmobility 	totalCO2Emission 	599.84450775693
scalar RSUExampleScenario.node[39].appl 	meanClusterNodes 	6.75
scalar RSUExampleScenario.node[39].appl 	meanClusterHeadUtility 	8.5557895705218
scalar RSUExampleScenario.node[39].appl 	NumberofCH 	0.10810810810811
scalar RSUExampleScenario.node[39].appl 	NumberofON 	0.40540540540541
scalar RSUExampleScenario.node[39].appl 	NumberofFN 	0.48648648648649
scalar RSUExampleScenario.node[39].veinsmobility 	startTime 	94
scalar RSUExampleScenario.node[39].veinsmobility 	totalTime 	356
scalar RSUExampleScenario.node[39].veinsmobility 	stopTime 	450
scalar RSUExampleScenario.node[39].veinsmobility 	minSpeed 	0
scalar RSUExampleScenario.node[39].veinsmobility 	maxSpeed 	13.999965068386
scalar RSUExampleScenario.node[39].veinsmobility 	totalDistance 	1797.1659078714
scalar RSUExampleScenario.node[39].veinsmobility 	totalCO2Emission 	591.12999267954
scalar RSUExampleScenario.node[4].appl 	meanClusterNodes 	6.25
scalar RSUExampleScenario.node[4].appl 	meanClusterHeadUtility 	9.14093236027
scalar RSUExampleScenario.node[4].appl 	NumberofCH 	0.10810810810811
scalar RSUExampleScenario.node[4].appl 	NumberofON 	0.24324324324324
scalar RSUExampleScenario.node[4].appl 	NumberofFN 	0.64864864864865
scalar RSUExampleScenario.node[4].veinsmobility 	startTime 	9.7
scalar RSUExampleScenario.node[4].veinsmobility 	totalTime 	440.3
scalar RSUExampleScenario.node[4].veinsmobility 	stopTime 	450
scalar RSUExampleScenario.node[4].veinsmobility 	minSpeed 	0
scalar RSUExampleScenario.node[4].veinsmobility 	maxSpeed 	13.999905688202
scalar RSUExampleScenario.node[4].veinsmobility 	totalDistance 	2945.9790818457
scalar RSUExampleScenario.node[4].veinsmobility 	totalCO2Emission 	797.98971487956
scalar RSUExampleScenario.node[40].appl 	meanClusterNodes 	4
scalar RSUExampleScenario.node[40].appl 	meanClusterHeadUtility 	8.0192473518914
scalar RSUExampleScenario.node[40].appl 	NumberofCH 	0.10810810810811
scalar RSUExampleScenario.node[40].appl 	NumberofON 	0.48648648648649
scalar RSUExampleScenario.node[40].appl 	NumberofFN 	0.40540540540541
scalar RSUExampleScenario.node[40].veinsmobility 	startTime 	96.5
scalar RSUExampleScenario.node[40].veinsmobility 	totalTime 	353.5
scalar RSUExampleScenario.node[40].veinsmobility 	stopTime 	450
scalar RSUExampleScenario.node[40].veinsmobility 	minSpeed 	0
scalar RSUExampleScenario.node[40].veinsmobility 	maxSpeed 	13.999926890621
scalar RSUExampleScenario.node[40].veinsmobility 	totalDistance 	1764.7710179082
scalar RSUExampleScenario.node[40].veinsmobility 	totalCO2Emission 	584.9989448443
scalar RSUExampleScenario.node[41].appl 	meanClusterNodes 	3
scalar RSUExampleScenario.node[41].appl 	meanClusterHeadUtility 	16.035869319827
scalar RSUExampleScenario.node[41].appl 	NumberofCH 	0.054054054054054
scalar RSUExampleScenario.node[41].appl 	NumberofON 	0.64864864864865
scalar RSUExampleScenario.node[41].appl 	NumberofFN 	0.2972972972973
scalar RSUExampleScenario.node[41].veinsmobility 	startTime 	98.9
scalar RSUExampleScenario.node[41].veinsmobility 	totalTime 	351.1
scalar RSUExampleScenario.node[41].veinsmobility 	stopTime 	450
scalar RSUExampleScenario.node[41].veinsmobility 	minSpeed 	0
scalar RSUExampleScenario.node[41].veinsmobility 	maxSpeed 	13.999995353078
scalar RSUExampleScenario.node[41].veinsmobility 	totalDistance 	1728.7915328644
scalar RSUExampleScenario.node[41].veinsmobility 	totalCO2Emission 	584.72678145925
scalar RSUExampleScenario.node[42].appl 	meanClusterNodes 	4
scalar RSUExampleScenario.node[42].appl 	meanClusterHeadUtility 	18.214712178712
scalar RSUExampleScenario.node[42].appl 	NumberofCH 	0.054054054054054
scalar RSUExampleScenario.node[42].appl 	NumberofON 	0.62162162162162
scalar RSUExampleScenario.node[42].appl 	NumberofFN 	0.32432432432432
scalar RSUExampleScenario.node[42].veinsmobility 	startTime 	101.3
scalar RSUExampleScenario.node[42].veinsmobility 	totalTime 	348.7
scalar RSUExampleScenario.node[42].veinsmobility 	stopTime 	450
scalar RSUExampleScenario.node[42].veinsmobility 	minSpeed 	0
scalar RSUExampleScenario.node[42].veinsmobility 	maxSpeed 	13.999818818332
scalar RSUExampleScenario.node[42].veinsmobility 	totalDistance 	1694.8815018483
scalar RSUExampleScenario.node[42].veinsmobility 	totalCO2Emission 	576.01397536937
scalar RSUExampleScenario.node[43].appl 	meanClusterNodes 	7.5
scalar RSUExampleScenario.node[43].appl 	meanClusterHeadUtility 	16.917844731461
scalar RSUExampleScenario.node[43].appl 	NumberofCH 	0.054054054054054
scalar RSUExampleScenario.node[43].appl 	NumberofON 	0.40540540540541
scalar RSUExampleScenario.node[43].appl 	NumberofFN 	0.54054054054054
scalar RSUExampleScenario.node[43].veinsmobility 	startTime 	103.7
scalar RSUExampleScenario.node[43].veinsmobility 	totalTime 	346.3
scalar RSUExampleScenario.node[43].veinsmobility 	stopTime 	450
scalar RSUExampleScenario.node[43].veinsmobility 	minSpeed 	0
scalar RSUExampleScenario.node[43].veinsmobility 	maxSpeed 	13.999997211865
scalar RSUExampleScenario.node[43].veinsmobility 	totalDistance 	1662.6473601501
scalar RSUExampleScenario.node[43].veinsmobility 	totalCO2Emission 	568.79968566647
scalar RSUExampleScenario.node[44].appl 	meanClusterNodes 	7
scalar RSUExampleScenario.node[44].appl 	meanClusterHeadUtility 	16.369110597298
scalar RSUExampleScenario.node[44].appl 	NumberofCH 	0.054054054054054
scalar RSUExampleScenario.node[44].appl 	NumberofON 	0.2972972972973
scalar RSUExampleScenario.node[44].appl 	NumberofFN 	0.64864864864865
scalar RSUExampleScenario.node[44].veinsmobility 	startTime 	106.1
scalar RSUExampleScenario.node[44].veinsmobility 	totalTime 	343.9
scalar RSUExampleScenario.node[44].veinsmobility 	stopTime 	450
scalar RSUExampleScenario.node[44].veinsmobility 	minSpeed 	0
scalar RSUExampleScenario.node[44].veinsmobility 	maxSpeed 	13.999731757077
scalar RSUExampleScenario.node[44].veinsmobility 	totalDistance 	1627.015520952
scalar RSUExampleScenario.node[44].veinsmobility 	totalCO2Emission 	564.39247268778
scalar RSUExampleScenario.node[45].appl 	meanClusterNodes 	5.5
scalar RSUExampleScenario.node[45].appl 	meanClusterHeadUtility 	18.109967779946
scalar RSUExampleScenario.node[45].appl 	NumberofCH 	0.054054054054054
scalar RSUExampleScenario.node[45].appl 	NumberofON 	0.75675675675676
scalar RSUExampleScenario.node[45].appl 	NumberofFN 	0.18918918918919
scalar RSUExampleScenario.node[45].veinsmobility 	startTime 	108.5
scalar RSUExampleScenario.node[45].veinsmobility 	totalTime 	341.5
scalar RSUExampleScenario.node[45].veinsmobility 	stopTime 	450
scalar RSUExampleScenario.node[45].veinsmobility 	minSpeed 	0
scalar RSUExampleScenario.node[45].veinsmobility 	maxSpeed 	13.999819159633
scalar RSUExampleScenario.node[45].veinsmobility 	totalDistance 	1593.7994427879
scalar RSUExampleScenario.node[45].veinsmobility 	totalCO2Emission 	560.73099913541
scalar RSUExampleScenario.node[46].appl 	meanClusterNodes 	4
scalar RSUExampleScenario.node[46].appl 	meanClusterHeadUtility 	8.2285082877563
scalar RSUExampleScenario.node[46].appl 	NumberofCH 	0.10810810810811
scalar RSUExampleScenario.node[46].appl 	NumberofON 	0.51351351351351
scalar RSUExampleScenario.node[46].appl 	NumberofFN 	0.37837837837838
scalar RSUExampleScenario.node[46].veinsmobility 	startTime 	110.9
scalar RSUExampleScenario.node[46].veinsmobility 	totalTime 	339.1
scalar RSUExampleScenario.node[46].veinsmobility 	stopTime 	450
scalar RSUExampleScenario.node[46].veinsmobility 	minSpeed 	0
scalar RSUExampleScenario.node[46].veinsmobility 	maxSpeed 	13.999910021729
scalar RSUExampleScenario.node[46].veinsmobility 	totalDistance 	1559.5762161833
scalar RSUExampleScenario.node[46].veinsmobility 	totalCO2Emission 	552.88977799247
scalar RSUExampleScenario.node[47].appl 	meanClusterNodes 	3
scalar RSUExampleScenario.node[47].appl 	meanClusterHeadUtility 	16.494599567066
scalar RSUExampleScenario.node[47].appl 	NumberofCH 	0.054054054054054
scalar RSUExampleScenario.node[47].appl 	NumberofON 	0.78378378378378
scalar RSUExampleScenario.node[47].appl 	NumberofFN 	0.16216216216216
scalar RSUExampleScenario.node[47].veinsmobility 	startTime 	113.3
scalar RSUExampleScenario.node[47].veinsmobility 	totalTime 	336.7
scalar RSUExampleScenario.node[47].veinsmobility 	stopTime 	450
scalar RSUExampleScenario.node[47].veinsmobility 	minSpeed 	0
scalar RSUExampleScenario.node[47].veinsmobility 	maxSpeed 	13.999919734634
scalar RSUExampleScenario.node[47].veinsmobility 	totalDistance 	1526.7348261651
scalar RSUExampleScenario.node[47].veinsmobility 	totalCO2Emission 	549.15696065992
scalar RSUExampleScenario.node[48].appl 	meanClusterNodes 	9.5
scalar RSUExampleScenario.node[48].appl 	meanClusterHeadUtility 	17.994896026722
scalar RSUExampleScenario.node[48].appl 	NumberofCH 	0.054054054054054
scalar RSUExampleScenario.node[48].appl 	NumberofON 	0.32432432432432
scalar RSUExampleScenario.node[48].appl 	NumberofFN 	0.62162162162162
scalar RSUExampleScenario.node[48].veinsmobility 	startTime 	115.7
scalar RSUExampleScenario.node[48].veinsmobility 	totalTime 	334.3
scalar RSUExampleScenario.node[48].veinsmobility 	stopTime 	450
scalar RSUExampleScenario.node[48].veinsmobility 	minSpeed 	0
scalar RSUExampleScenario.node[48].veinsmobility 	maxSpeed 	13.999961360649
scalar RSUExampleScenario.node[48].veinsmobility 	totalDistance 	1492.7400136857
scalar RSUExampleScenario.node[48].veinsmobility 	totalCO2Emission 	543.59622439057
scalar RSUExampleScenario.node[49].appl 	meanClusterNodes 	7.75
scalar RSUExampleScenario.node[49].appl 	meanClusterHeadUtility 	8.6403445154863
scalar RSUExampleScenario.node[49].appl 	NumberofCH 	0.10810810810811
scalar RSUExampleScenario.node[49].appl 	NumberofON 	0.56756756756757
scalar RSUExampleScenario.node[49].appl 	NumberofFN 	0.32432432432432
scalar RSUExampleScenario.node[49].veinsmobility 	startTime 	118.1
scalar RSUExampleScenario.node[49].veinsmobility 	totalTime 	331.9
scalar RSUExampleScenario.node[49].veinsmobility 	stopTime 	450
scalar RSUExampleScenario.node[49].veinsmobility 	minSpeed 	0
scalar RSUExampleScenario.node[49].veinsmobility 	maxSpeed 	13.999677730906
scalar RSUExampleScenario.node[49].veinsmobility 	totalDistance 	1461.5706024389
scalar RSUExampleScenario.node[49].veinsmobility 	totalCO2Emission 	538.44168206627
scalar RSUExampleScenario.node[5].appl 	meanClusterNodes 	5
scalar RSUExampleScenario.node[5].appl 	meanClusterHeadUtility 	8.8753745304837
scalar RSUExampleScenario.node[5].appl 	NumberofCH 	0.10810810810811
scalar RSUExampleScenario.node[5].appl 	NumberofON 	0.27027027027027
scalar RSUExampleScenario.node[5].appl 	NumberofFN 	0.62162162162162
scalar RSUExampleScenario.node[5].veinsmobility 	startTime 	12.1
scalar RSUExampleScenario.node[5].veinsmobility 	totalTime 	437.9
scalar RSUExampleScenario.node[5].veinsmobility 	stopTime 	450
scalar RSUExampleScenario.node[5].veinsmobility 	minSpeed 	0
scalar RSUExampleScenario.node[5].veinsmobility 	maxSpeed 	13.999984160794
scalar RSUExampleScenario.node[5].veinsmobility 	totalDistance 	2917.9673540364
scalar RSUExampleScenario.node[5].veinsmobility 	totalCO2Emission 	782.04475438772
scalar RSUExampleScenario.node[50].appl 	meanClusterNodes 	7
scalar RSUExampleScenario.node[50].appl 	meanClusterHeadUtility 	9.0421087510378
scalar RSUExampleScenario.node[50].appl 	NumberofCH 	0.10810810810811
scalar RSUExampleScenario.node[50].appl 	NumberofON 	0.45945945945946
scalar RSUExampleScenario.node[50].appl 	NumberofFN 	0.43243243243243
scalar RSUExampleScenario.node[50].veinsmobility 	startTime 	120.6
scalar RSUExampleScenario.node[50].veinsmobility 	totalTime 	329.4
scalar RSUExampleScenario.node[50].veinsmobility 	stopTime 	450
scalar RSUExampleScenario.node[50].veinsmobility 	minSpeed 	0
scalar RSUExampleScenario.node[50].veinsmobility 	maxSpeed 	13.999934656024
scalar RSUExampleScenario.node[50].veinsmobility 	totalDistance 	1426.2826266325
scalar RSUExampleScenario.node[50].veinsmobility 	totalCO2Emission 	530.92586541959
scalar RSUExampleScenario.node[51].appl 	meanClusterNodes 	2.25
scalar RSUExampleScenario.node[51].appl 	meanClusterHeadUtility 	8.2883233511342
scalar RSUExampleScenario.node[51].appl 	NumberofCH 	0.10810810810811
scalar RSUExampleScenario.node[51].appl 	NumberofON 	0.83783783783784
scalar RSUExampleScenario.node[51].appl 	NumberofFN 	0.054054054054054
scalar RSUExampleScenario.node[51].veinsmobility 	startTime 	123
scalar RSUExampleScenario.node[51].veinsmobility 	totalTime 	327
scalar RSUExampleScenario.node[51].veinsmobility 	stopTime 	450
scalar RSUExampleScenario.node[51].veinsmobility 	minSpeed 	0
scalar RSUExampleScenario.node[51].veinsmobility 	maxSpeed 	13.999932868094
scalar RSUExampleScenario.node[51].veinsmobility 	totalDistance 	1393.3690794836
scalar RSUExampleScenario.node[51].veinsmobility 	totalCO2Emission 	525.09067559903
scalar RSUExampleScenario.node[52].appl 	meanClusterNodes 	5
scalar RSUExampleScenario.node[52].appl 	meanClusterHeadUtility 	16.182894237209
scalar RSUExampleScenario.node[52].appl 	NumberofCH 	0.054054054054054
scalar RSUExampleScenario.node[52].appl 	NumberofON 	0.72972972972973
scalar RSUExampleScenario.node[52].appl 	NumberofFN 	0.21621621621622
scalar RSUExampleScenario.node[52].veinsmobility 	startTime 	125.4
scalar RSUExampleScenario.node[52].veinsmobility 	totalTime 	324.6
scalar RSUExampleScenario.node[52].veinsmobility 	stopTime 	450
scalar RSUExampleScenario.node[52].veinsmobility 	minSpeed 	0
scalar RSUExampleScenario.node[52].veinsmobility 	maxSpeed 	13.999957050488
scalar RSUExampleScenario.node[52].veinsmobility 	totalDistance 	1360.5802239528
scalar RSUExampleScenario.node[52].veinsmobility 	totalCO2Emission 	518.18526968276
scalar RSUExampleScenario.node[53].appl 	meanClusterNodes 	3.25
scalar RSUExampleScenario.node[53].appl 	meanClusterHeadUtility 	8.5137347278768
scalar RSUExampleScenario.node[53].appl 	NumberofCH 	0.10810810810811
scalar RSUExampleScenario.node[53].appl 	NumberofON 	0.83783783783784
scalar RSUExampleScenario.node[53].appl 	NumberofFN 	0.054054054054054
scalar RSUExampleScenario.node[53].veinsmobility 	startTime 	127.8
scalar RSUExampleScenario.node[53].veinsmobility 	totalTime 	322.2
scalar RSUExampleScenario.node[53].veinsmobility 	stopTime 	450
scalar RSUExampleScenario.node[53].veinsmobility 	minSpeed 	0
scalar RSUExampleScenario.node[53].veinsmobility 	maxSpeed 	13.99923014225
scalar RSUExampleScenario.node[53].veinsmobility 	totalDistance 	1326.0399308387
scalar RSUExampleScenario.node[53].veinsmobility 	totalCO2Emission 	513.57333619705
scalar RSUExampleScenario.node[54].appl 	meanClusterNodes 	6.5
scalar RSUExampleScenario.node[54].appl 	meanClusterHeadUtility 	18.250111948679
scalar RSUExampleScenario.node[54].appl 	NumberofCH 	0.054054054054054
scalar RSUExampleScenario.node[54].appl 	NumberofON 	0.78378378378378
scalar RSUExampleScenario.node[54].appl 	NumberofFN 	0.16216216216216
scalar RSUExampleScenario.node[54].veinsmobility 	startTime 	130.2
scalar RSUExampleScenario.node[54].veinsmobility 	totalTime 	319.8
scalar RSUExampleScenario.node[54].veinsmobility 	stopTime 	450
scalar RSUExampleScenario.node[54].veinsmobility 	minSpeed 	0
scalar RSUExampleScenario.node[54].veinsmobility 	maxSpeed 	13.99983864713
scalar RSUExampleScenario.node[54].veinsmobility 	totalDistance 	1292.6508726187
scalar RSUExampleScenario.node[54].veinsmobility 	totalCO2Emission 	508.88040358593
scalar RSUExampleScenario.node[55].appl 	meanClusterNodes 	4
scalar RSUExampleScenario.node[55].appl 	meanClusterHeadUtility 	17.831530787482
scalar RSUExampleScenario.node[55].appl 	NumberofCH 	0.054054054054054
scalar RSUExampleScenario.node[55].appl 	NumberofON 	0.89189189189189
scalar RSUExampleScenario.node[55].appl 	NumberofFN 	0.054054054054054
scalar RSUExampleScenario.node[55].veinsmobility 	startTime 	132.6
scalar RSUExampleScenario.node[55].veinsmobility 	totalTime 	317.4
scalar RSUExampleScenario.node[55].veinsmobility 	stopTime 	450
scalar RSUExampleScenario.node[55].veinsmobility 	minSpeed 	0
scalar RSUExampleScenario.node[55].veinsmobility 	maxSpeed 	13.999723896573
scalar RSUExampleScenario.node[55].veinsmobility 	totalDistance 	1258.872494613
scalar RSUExampleScenario.node[55].veinsmobility 	totalCO2Emission 	502.0761259685
scalar RSUExampleScenario.node[56].appl 	meanClusterNodes 	4
scalar RSUExampleScenario.node[56].appl 	meanClusterHeadUtility 	15.44451109936
scalar RSUExampleScenario.node[56].appl 	NumberofCH 	0.054054054054054
scalar RSUExampleScenario.node[56].appl 	NumberofON 	0.78378378378378
scalar RSUExampleScenario.node[56].appl 	NumberofFN 	0.16216216216216
scalar RSUExampleScenario.node[56].veinsmobility 	startTime 	135
scalar RSUExampleScenario.node[56].veinsmobility 	totalTime 	315
scalar RSUExampleScenario.node[56].veinsmobility 	stopTime 	450
scalar RSUExampleScenario.node[56].veinsmobility 	minSpeed 	0
scalar RSUExampleScenario.node[56].veinsmobility 	maxSpeed 	13.999747243116
scalar RSUExampleScenario.node[56].veinsmobility 	totalDistance 	1225.6878104271
scalar RSUExampleScenario.node[56].veinsmobility 	totalCO2Emission 	495.78466718402
scalar RSUExampleScenario.node[57].appl 	meanClusterNodes 	4
scalar RSUExampleScenario.node[57].appl 	meanClusterHeadUtility 	12.094718985859
scalar RSUExampleScenario.node[57].appl 	NumberofCH 	0.081081081081081
scalar RSUExampleScenario.node[57].appl 	NumberofON 	0.75675675675676
scalar RSUExampleScenario.node[57].appl 	NumberofFN 	0.16216216216216
scalar RSUExampleScenario.node[57].veinsmobility 	startTime 	137.4
scalar RSUExampleScenario.node[57].veinsmobility 	totalTime 	312.6
scalar RSUExampleScenario.node[57].veinsmobility 	stopTime 	450
scalar RSUExampleScenario.node[57].veinsmobility 	minSpeed 	0
scalar RSUExampleScenario.node[57].veinsmobility 	maxSpeed 	13.999946210282
scalar RSUExampleScenario.node[57].veinsmobility 	totalDistance 	1192.7219890606
scalar RSUExampleScenario.node[57].veinsmobility 	totalCO2Emission 	491.43745596547
scalar RSUExampleScenario.node[58].appl 	meanClusterNodes 	8
scalar RSUExampleScenario.node[58].appl 	meanClusterHeadUtility 	18.540175937273
scalar RSUExampleScenario.node[58].appl 	NumberofCH 	0.054054054054054
scalar RSUExampleScenario.node[58].appl 	NumberofON 	0.51351351351351
scalar RSUExampleScenario.node[58].appl 	NumberofFN 	0.43243243243243
scalar RSUExampleScenario.node[58].veinsmobility 	startTime 	139.8
scalar RSUExampleScenario.node[58].veinsmobility 	totalTime 	310.2
scalar RSUExampleScenario.node[58].veinsmobility 	stopTime 	450
scalar RSUExampleScenario.node[58].veinsmobility 	minSpeed 	0
scalar RSUExampleScenario.node[58].veinsmobility 	maxSpeed 	13.999736993983
scalar RSUExampleScenario.node[58].veinsmobility 	totalDistance 	1158.5360728952
scalar RSUExampleScenario.node[58].veinsmobility 	totalCO2Emission 	486.25569251366
scalar RSUExampleScenario.node[59].appl 	meanClusterNodes 	6.5
scalar RSUExampleScenario.node[59].appl 	meanClusterHeadUtility 	17.280063353293
scalar RSUExampleScenario.node[59].appl 	NumberofCH 	0.054054054054054
scalar RSUExampleScenario.node[59].appl 	NumberofON 	0.64864864864865
scalar RSUExampleScenario.node[59].appl 	NumberofFN 	0.2972972972973
scalar RSUExampleScenario.node[59].veinsmobility 	startTime 	142.2
scalar RSUExampleScenario.node[59].veinsmobility 	totalTime 	307.8
scalar RSUExampleScenario.node[59].veinsmobility 	stopTime 	450
scalar RSUExampleScenario.node[59].veinsmobility 	minSpeed 	0
scalar RSUExampleScenario.node[59].veinsmobility 	maxSpeed 	13.999928155611
scalar RSUExampleScenario.node[59].veinsmobility 	totalDistance 	1125.8837915769
scalar RSUExampleScenario.node[59].veinsmobility 	totalCO2Emission 	479.01902799001
scalar RSUExampleScenario.node[6].appl 	meanClusterNodes 	3.5
scalar RSUExampleScenario.node[6].appl 	meanClusterHeadUtility 	8.1486420117701
scalar RSUExampleScenario.node[6].appl 	NumberofCH 	0.10810810810811
scalar RSUExampleScenario.node[6].appl 	NumberofON 	0.40540540540541
scalar RSUExampleScenario.node[6].appl 	NumberofFN 	0.48648648648649
scalar RSUExampleScenario.node[6].veinsmobility 	startTime 	14.5
scalar RSUExampleScenario.node[6].veinsmobility 	totalTime 	435.5
scalar RSUExampleScenario.node[6].veinsmobility 	stopTime 	450
scalar RSUExampleScenario.node[6].veinsmobility 	minSpeed 	0
scalar RSUExampleScenario.node[6].veinsmobility 	maxSpeed 	13.999893214675
scalar RSUExampleScenario.node[6].veinsmobility 	totalDistance 	2901.3082315307
scalar RSUExampleScenario.node[6].veinsmobility 	totalCO2Emission 	778.20787105058
scalar RSUExampleScenario.node[60].appl 	meanClusterNodes 	5.25
scalar RSUExampleScenario.node[60].appl 	meanClusterHeadUtility 	8.2880453187034
scalar RSUExampleScenario.node[60].appl 	NumberofCH 	0.10810810810811
scalar RSUExampleScenario.node[60].appl 	NumberofON 	0.51351351351351
scalar RSUExampleScenario.node[60].appl 	NumberofFN 	0.37837837837838
scalar RSUExampleScenario.node[60].veinsmobility 	startTime 	144.7
scalar RSUExampleScenario.node[60].veinsmobility 	totalTime 	305.3
scalar RSUExampleScenario.node[60].veinsmobility 	stopTime 	450
scalar RSUExampleScenario.node[60].veinsmobility 	minSpeed 	0
scalar RSUExampleScenario.node[60].veinsmobility 	maxSpeed 	13.999985526062
scalar RSUExampleScenario.node[60].veinsmobility 	totalDistance 	1092.0651843489
scalar RSUExampleScenario.node[60].veinsmobility 	totalCO2Emission 	473.20679875186
scalar RSUExampleScenario.node[61].appl 	meanClusterNodes 	5
scalar RSUExampleScenario.node[61].appl 	meanClusterHeadUtility 	16.768989205289
scalar RSUExampleScenario.node[61].appl 	NumberofCH 	0.054054054054054
scalar RSUExampleScenario.node[61].appl 	NumberofON 	0.81081081081081
scalar RSUExampleScenario.node[61].appl 	NumberofFN 	0.13513513513514
scalar RSUExampleScenario.node[61].veinsmobility 	startTime 	147.1
scalar RSUExampleScenario.node[61].veinsmobility 	totalTime 	302.9
scalar RSUExampleScenario.node[61].veinsmobility 	stopTime 	450
scalar RSUExampleScenario.node[61].veinsmobility 	minSpeed 	0
scalar RSUExampleScenario.node[61].veinsmobility 	maxSpeed 	13.999998325091
scalar RSUExampleScenario.node[61].veinsmobility 	totalDistance 	1059.1419440273
scalar RSUExampleScenario.node[61].veinsmobility 	totalCO2Emission 	466.08934439094
scalar RSUExampleScenario.node[62].appl 	meanClusterNodes 	7.5
scalar RSUExampleScenario.node[62].appl 	meanClusterHeadUtility 	17.452197092043
scalar RSUExampleScenario.node[62].appl 	NumberofCH 	0.054054054054054
scalar RSUExampleScenario.node[62].appl 	NumberofON 	0.67567567567568
scalar RSUExampleScenario.node[62].appl 	NumberofFN 	0.27027027027027
scalar RSUExampleScenario.node[62].veinsmobility 	startTime 	149.5
scalar RSUExampleScenario.node[62].veinsmobility 	totalTime 	300.5
scalar RSUExampleScenario.node[62].veinsmobility 	stopTime 	450
scalar RSUExampleScenario.node[62].veinsmobility 	minSpeed 	0
scalar RSUExampleScenario.node[62].veinsmobility 	maxSpeed 	13.999971189874
scalar RSUExampleScenario.node[62].veinsmobility 	totalDistance 	1023.9693737977
scalar RSUExampleScenario.node[62].veinsmobility 	totalCO2Emission 	463.83284636362
scalar RSUExampleScenario.node[63].appl 	meanClusterNodes 	4
scalar RSUExampleScenario.node[63].appl 	meanClusterHeadUtility 	7.9953592614782
scalar RSUExampleScenario.node[63].appl 	NumberofCH 	0.10810810810811
scalar RSUExampleScenario.node[63].appl 	NumberofON 	0.72972972972973
scalar RSUExampleScenario.node[63].appl 	NumberofFN 	0.16216216216216
scalar RSUExampleScenario.node[63].veinsmobility 	startTime 	151.9
scalar RSUExampleScenario.node[63].veinsmobility 	totalTime 	298.1
scalar RSUExampleScenario.node[63].veinsmobility 	stopTime 	450
scalar RSUExampleScenario.node[63].veinsmobility 	minSpeed 	0
scalar RSUExampleScenario.node[63].veinsmobility 	maxSpeed 	13.999963782239
scalar RSUExampleScenario.node[63].veinsmobility 	totalDistance 	984.55893161031
scalar RSUExampleScenario.node[63].veinsmobility 	totalCO2Emission 	446.67357251515
scalar RSUExampleScenario.node[64].appl 	meanClusterNodes 	2
scalar RSUExampleScenario.node[64].appl 	meanClusterHeadUtility 	8.5246826158055
scalar RSUExampleScenario.node[64].appl 	NumberofCH 	0.10810810810811
scalar RSUExampleScenario.node[64].appl 	NumberofON 	0.21621621621622
scalar RSUExampleScenario.node[64].appl 	NumberofFN 	0.67567567567568
scalar RSUExampleScenario.node[64].veinsmobility 	startTime 	154.3
scalar RSUExampleScenario.node[64].veinsmobility 	totalTime 	295.7
scalar RSUExampleScenario.node[64].veinsmobility 	stopTime 	450
scalar RSUExampleScenario.node[64].veinsmobility 	minSpeed 	0
scalar RSUExampleScenario.node[64].veinsmobility 	maxSpeed 	13.999827486265
scalar RSUExampleScenario.node[64].veinsmobility 	totalDistance 	953.54588594898
scalar RSUExampleScenario.node[64].veinsmobility 	totalCO2Emission 	436.25361304176
scalar RSUExampleScenario.node[65].appl 	meanClusterNodes 	8.75
scalar RSUExampleScenario.node[65].appl 	meanClusterHeadUtility 	8.4402838747992
scalar RSUExampleScenario.node[65].appl 	NumberofCH 	0.10810810810811
scalar RSUExampleScenario.node[65].appl 	NumberofON 	0.37837837837838
scalar RSUExampleScenario.node[65].appl 	NumberofFN 	0.51351351351351
scalar RSUExampleScenario.node[65].veinsmobility 	startTime 	156.7
scalar RSUExampleScenario.node[65].veinsmobility 	totalTime 	293.3
scalar RSUExampleScenario.node[65].veinsmobility 	stopTime 	450
scalar RSUExampleScenario.node[65].veinsmobility 	minSpeed 	0
scalar RSUExampleScenario.node[65].veinsmobility 	maxSpeed 	13.999590731338
scalar RSUExampleScenario.node[65].veinsmobility 	totalDistance 	940.37576932748
scalar RSUExampleScenario.node[65].veinsmobility 	totalCO2Emission 	426.99954027168
scalar RSUExampleScenario.node[66].appl 	meanClusterNodes 	4.75
scalar RSUExampleScenario.node[66].appl 	meanClusterHeadUtility 	8.7429074098517
scalar RSUExampleScenario.node[66].appl 	NumberofCH 	0.10810810810811
scalar RSUExampleScenario.node[66].appl 	NumberofON 	0.24324324324324
scalar RSUExampleScenario.node[66].appl 	NumberofFN 	0.64864864864865
scalar RSUExampleScenario.node[66].veinsmobility 	startTime 	159.1
scalar RSUExampleScenario.node[66].veinsmobility 	totalTime 	290.9
scalar RSUExampleScenario.node[66].veinsmobility 	stopTime 	450
scalar RSUExampleScenario.node[66].veinsmobility 	minSpeed 	0
scalar RSUExampleScenario.node[66].veinsmobility 	maxSpeed 	13.999816165434
scalar RSUExampleScenario.node[66].veinsmobility 	totalDistance 	928.1190808839
scalar RSUExampleScenario.node[66].veinsmobility 	totalCO2Emission 	423.02978393096
scalar RSUExampleScenario.node[67].appl 	meanClusterNodes 	6.5
scalar RSUExampleScenario.node[67].appl 	meanClusterHeadUtility 	17.477347834384
scalar RSUExampleScenario.node[67].appl 	NumberofCH 	0.054054054054054
scalar RSUExampleScenario.node[67].appl 	NumberofON 	0.2972972972973
scalar RSUExampleScenario.node[67].appl 	NumberofFN 	0.64864864864865
scalar RSUExampleScenario.node[67].veinsmobility 	startTime 	161.5
scalar RSUExampleScenario.node[67].veinsmobility 	totalTime 	288.5
scalar RSUExampleScenario.node[67].veinsmobility 	stopTime 	450
scalar RSUExampleScenario.node[67].veinsmobility 	minSpeed 	0
scalar RSUExampleScenario.node[67].veinsmobility 	maxSpeed 	13.999975449245
scalar RSUExampleScenario.node[67].veinsmobility 	totalDistance 	912.90249278242
scalar RSUExampleScenario.node[67].veinsmobility 	totalCO2Emission 	420.94402435033
scalar RSUExampleScenario.node[68].appl 	meanClusterNodes 	6
scalar RSUExampleScenario.node[68].appl 	meanClusterHeadUtility 	18.197914287031
scalar RSUExampleScenario.node[68].appl 	NumberofCH 	0.054054054054054
scalar RSUExampleScenario.node[68].appl 	NumberofON 	0.43243243243243
scalar RSUExampleScenario.node[68].appl 	NumberofFN 	0.51351351351351
scalar RSUExampleScenario.node[68].veinsmobility 	startTime 	163.9
scalar RSUExampleScenario.node[68].veinsmobility 	totalTime 	286.1
scalar RSUExampleScenario.node[68].veinsmobility 	stopTime 	450
scalar RSUExampleScenario.node[68].veinsmobility 	minSpeed 	0
scalar RSUExampleScenario.node[68].veinsmobility 	maxSpeed 	13.99985397408
scalar RSUExampleScenario.node[68].veinsmobility 	totalDistance 	893.62736443464
scalar RSUExampleScenario.node[68].veinsmobility 	totalCO2Emission 	418.89342081816
scalar RSUExampleScenario.node[69].appl 	meanClusterNodes 	0
scalar RSUExampleScenario.node[69].appl 	meanClusterHeadUtility 	0
scalar RSUExampleScenario.node[69].appl 	NumberofCH 	0
scalar RSUExampleScenario.node[69].appl 	NumberofON 	0.7027027027027
scalar RSUExampleScenario.node[69].appl 	NumberofFN 	0.2972972972973
scalar RSUExampleScenario.node[69].veinsmobility 	startTime 	166.3
scalar RSUExampleScenario.node[69].veinsmobility 	totalTime 	283.7
scalar RSUExampleScenario.node[69].veinsmobility 	stopTime 	450
scalar RSUExampleScenario.node[69].veinsmobility 	minSpeed 	0
scalar RSUExampleScenario.node[69].veinsmobility 	maxSpeed 	13.999999199715
scalar RSUExampleScenario.node[69].veinsmobility 	totalDistance 	859.62682368898
scalar RSUExampleScenario.node[69].veinsmobility 	totalCO2Emission 	412.59462601814
scalar RSUExampleScenario.node[7].appl 	meanClusterNodes 	6.5
scalar RSUExampleScenario.node[7].appl 	meanClusterHeadUtility 	19.113907982364
scalar RSUExampleScenario.node[7].appl 	NumberofCH 	0.054054054054054
scalar RSUExampleScenario.node[7].appl 	NumberofON 	0.35135135135135
scalar RSUExampleScenario.node[7].appl 	NumberofFN 	0.59459459459459
scalar RSUExampleScenario.node[7].veinsmobility 	startTime 	16.9
scalar RSUExampleScenario.node[7].veinsmobility 	totalTime 	433.1
scalar RSUExampleScenario.node[7].veinsmobility 	stopTime 	450
scalar RSUExampleScenario.node[7].veinsmobility 	minSpeed 	0
scalar RSUExampleScenario.node[7].veinsmobility 	maxSpeed 	13.999976702824
scalar RSUExampleScenario.node[7].veinsmobility 	totalDistance 	2889.0581244421
scalar RSUExampleScenario.node[7].veinsmobility 	totalCO2Emission 	775.86648741003
scalar RSUExampleScenario.node[70].appl 	meanClusterNodes 	3
scalar RSUExampleScenario.node[70].appl 	meanClusterHeadUtility 	17.334404034712
scalar RSUExampleScenario.node[70].appl 	NumberofCH 	0.054054054054054
scalar RSUExampleScenario.node[70].appl 	NumberofON 	0.54054054054054
scalar RSUExampleScenario.node[70].appl 	NumberofFN 	0.40540540540541
scalar RSUExampleScenario.node[70].veinsmobility 	startTime 	168.8
scalar RSUExampleScenario.node[70].veinsmobility 	totalTime 	281.2
scalar RSUExampleScenario.node[70].veinsmobility 	stopTime 	450
scalar RSUExampleScenario.node[70].veinsmobility 	minSpeed 	0
scalar RSUExampleScenario.node[70].veinsmobility 	maxSpeed 	13.999929168681
scalar RSUExampleScenario.node[70].veinsmobility 	totalDistance 	827.29127972232
scalar RSUExampleScenario.node[70].veinsmobility 	totalCO2Emission 	406.42473411498
scalar RSUExampleScenario.node[71].appl 	meanClusterNodes 	4.25
scalar RSUExampleScenario.node[71].appl 	meanClusterHeadUtility 	8.6916660089837
scalar RSUExampleScenario.node[71].appl 	NumberofCH 	0.10810810810811
scalar RSUExampleScenario.node[71].appl 	NumberofON 	0.2972972972973
scalar RSUExampleScenario.node[71].appl 	NumberofFN 	0.59459459459459
scalar RSUExampleScenario.node[71].veinsmobility 	startTime 	171.2
scalar RSUExampleScenario.node[71].veinsmobility 	totalTime 	278.8
scalar RSUExampleScenario.node[71].veinsmobility 	stopTime 	450
scalar RSUExampleScenario.node[71].veinsmobility 	minSpeed 	0
scalar RSUExampleScenario.node[71].veinsmobility 	maxSpeed 	13.999599071408
scalar RSUExampleScenario.node[71].veinsmobility 	totalDistance 	793.30373647013
scalar RSUExampleScenario.node[71].veinsmobility 	totalCO2Emission 	402.88492709566
scalar RSUExampleScenario.node[72].appl 	meanClusterNodes 	3.75
scalar RSUExampleScenario.node[72].appl 	meanClusterHeadUtility 	8.7674599631901
scalar RSUExampleScenario.node[72].appl 	NumberofCH 	0.10810810810811
scalar RSUExampleScenario.node[72].appl 	NumberofON 	0.59459459459459
scalar RSUExampleScenario.node[72].appl 	NumberofFN 	0.2972972972973
scalar RSUExampleScenario.node[72].veinsmobility 	startTime 	173.6
scalar RSUExampleScenario.node[72].veinsmobility 	totalTime 	276.4
scalar RSUExampleScenario.node[72].veinsmobility 	stopTime 	450
scalar RSUExampleScenario.node[72].veinsmobility 	minSpeed 	0
scalar RSUExampleScenario.node[72].veinsmobility 	maxSpeed 	13.999767713777
scalar RSUExampleScenario.node[72].veinsmobility 	totalDistance 	759.9059164721
scalar RSUExampleScenario.node[72].veinsmobility 	totalCO2Emission 	397.07463901834
scalar RSUExampleScenario.node[73].appl 	meanClusterNodes 	6.5
scalar RSUExampleScenario.node[73].appl 	meanClusterHeadUtility 	16.075100092952
scalar RSUExampleScenario.node[73].appl 	NumberofCH 	0.054054054054054
scalar RSUExampleScenario.node[73].appl 	NumberofON 	0.67567567567568
scalar RSUExampleScenario.node[73].appl 	NumberofFN 	0.27027027027027
scalar RSUExampleScenario.node[73].veinsmobility 	startTime 	176
scalar RSUExampleScenario.node[73].veinsmobility 	totalTime 	274
scalar RSUExampleScenario.node[73].veinsmobility 	stopTime 	450
scalar RSUExampleScenario.node[73].veinsmobility 	minSpeed 	0
scalar RSUExampleScenario.node[73].veinsmobility 	maxSpeed 	13.99898097079
scalar RSUExampleScenario.node[73].veinsmobility 	totalDistance 	726.23414600389
scalar RSUExampleScenario.node[73].veinsmobility 	totalCO2Emission 	391.48107043217
scalar RSUExampleScenario.node[74].appl 	meanClusterNodes 	8
scalar RSUExampleScenario.node[74].appl 	meanClusterHeadUtility 	16.113446278637
scalar RSUExampleScenario.node[74].appl 	NumberofCH 	0.054054054054054
scalar RSUExampleScenario.node[74].appl 	NumberofON 	0.48648648648649
scalar RSUExampleScenario.node[74].appl 	NumberofFN 	0.45945945945946
scalar RSUExampleScenario.node[74].veinsmobility 	startTime 	178.4
scalar RSUExampleScenario.node[74].veinsmobility 	totalTime 	271.6
scalar RSUExampleScenario.node[74].veinsmobility 	stopTime 	450
scalar RSUExampleScenario.node[74].veinsmobility 	minSpeed 	0
scalar RSUExampleScenario.node[74].veinsmobility 	maxSpeed 	13.999140555616
scalar RSUExampleScenario.node[74].veinsmobility 	totalDistance 	692.36969624576
scalar RSUExampleScenario.node[74].veinsmobility 	totalCO2Emission 	385.07897243002
scalar RSUExampleScenario.node[75].appl 	meanClusterNodes 	1
scalar RSUExampleScenario.node[75].appl 	meanClusterHeadUtility 	18.39746520626
scalar RSUExampleScenario.node[75].appl 	NumberofCH 	0.054054054054054
scalar RSUExampleScenario.node[75].appl 	NumberofON 	0.56756756756757
scalar RSUExampleScenario.node[75].appl 	NumberofFN 	0.37837837837838
scalar RSUExampleScenario.node[75].veinsmobility 	startTime 	180.8
scalar RSUExampleScenario.node[75].veinsmobility 	totalTime 	269.2
scalar RSUExampleScenario.node[75].veinsmobility 	stopTime 	450
scalar RSUExampleScenario.node[75].veinsmobility 	minSpeed 	0
scalar RSUExampleScenario.node[75].veinsmobility 	maxSpeed 	13.99956726233
scalar RSUExampleScenario.node[75].veinsmobility 	totalDistance 	658.25885389612
scalar RSUExampleScenario.node[75].veinsmobility 	totalCO2Emission 	379.87833611454
scalar RSUExampleScenario.node[76].appl 	meanClusterNodes 	3.5
scalar RSUExampleScenario.node[76].appl 	meanClusterHeadUtility 	8.1593679532883
scalar RSUExampleScenario.node[76].appl 	NumberofCH 	0.10810810810811
scalar RSUExampleScenario.node[76].appl 	NumberofON 	0.27027027027027
scalar RSUExampleScenario.node[76].appl 	NumberofFN 	0.62162162162162
scalar RSUExampleScenario.node[76].veinsmobility 	startTime 	183.2
scalar RSUExampleScenario.node[76].veinsmobility 	totalTime 	266.8
scalar RSUExampleScenario.node[76].veinsmobility 	stopTime 	450
scalar RSUExampleScenario.node[76].veinsmobility 	minSpeed 	0
scalar RSUExampleScenario.node[76].veinsmobility 	maxSpeed 	13.999974867373
scalar RSUExampleScenario.node[76].veinsmobility 	totalDistance 	625.841317646
scalar RSUExampleScenario.node[76].veinsmobility 	totalCO2Emission 	374.00165718975
scalar RSUExampleScenario.node[77].appl 	meanClusterNodes 	5
scalar RSUExampleScenario.node[77].appl 	meanClusterHeadUtility 	17.645962864088
scalar RSUExampleScenario.node[77].appl 	NumberofCH 	0.054054054054054
scalar RSUExampleScenario.node[77].appl 	NumberofON 	0.35135135135135
scalar RSUExampleScenario.node[77].appl 	NumberofFN 	0.59459459459459
scalar RSUExampleScenario.node[77].veinsmobility 	startTime 	185.6
scalar RSUExampleScenario.node[77].veinsmobility 	totalTime 	264.4
scalar RSUExampleScenario.node[77].veinsmobility 	stopTime 	450
scalar RSUExampleScenario.node[77].veinsmobility 	minSpeed 	0
scalar RSUExampleScenario.node[77].veinsmobility 	maxSpeed 	13.999930555741
scalar RSUExampleScenario.node[77].veinsmobility 	totalDistance 	593.13789914695
scalar RSUExampleScenario.node[77].veinsmobility 	totalCO2Emission 	369.02629848868
scalar RSUExampleScenario.node[78].appl 	meanClusterNodes 	7
scalar RSUExampleScenario.node[78].appl 	meanClusterHeadUtility 	8.6970001590643
scalar RSUExampleScenario.node[78].appl 	NumberofCH 	0.10810810810811
scalar RSUExampleScenario.node[78].appl 	NumberofON 	0.48648648648649
scalar RSUExampleScenario.node[78].appl 	NumberofFN 	0.40540540540541
scalar RSUExampleScenario.node[78].veinsmobility 	startTime 	188
scalar RSUExampleScenario.node[78].veinsmobility 	totalTime 	262
scalar RSUExampleScenario.node[78].veinsmobility 	stopTime 	450
scalar RSUExampleScenario.node[78].veinsmobility 	minSpeed 	0
scalar RSUExampleScenario.node[78].veinsmobility 	maxSpeed 	13.998602703051
scalar RSUExampleScenario.node[78].veinsmobility 	totalDistance 	556.83390053546
scalar RSUExampleScenario.node[78].veinsmobility 	totalCO2Emission 	360.86963493116
scalar RSUExampleScenario.node[79].appl 	meanClusterNodes 	5.5
scalar RSUExampleScenario.node[79].appl 	meanClusterHeadUtility 	9.1467039660562
scalar RSUExampleScenario.node[79].appl 	NumberofCH 	0.10810810810811
scalar RSUExampleScenario.node[79].appl 	NumberofON 	0.2972972972973
scalar RSUExampleScenario.node[79].appl 	NumberofFN 	0.59459459459459
scalar RSUExampleScenario.node[79].veinsmobility 	startTime 	190.4
scalar RSUExampleScenario.node[79].veinsmobility 	totalTime 	259.6
scalar RSUExampleScenario.node[79].veinsmobility 	stopTime 	450
scalar RSUExampleScenario.node[79].veinsmobility 	minSpeed 	0
scalar RSUExampleScenario.node[79].veinsmobility 	maxSpeed 	13.999442673437
scalar RSUExampleScenario.node[79].veinsmobility 	totalDistance 	523.39787274459
scalar RSUExampleScenario.node[79].veinsmobility 	totalCO2Emission 	356.72866251694
scalar RSUExampleScenario.node[8].appl 	meanClusterNodes 	9
scalar RSUExampleScenario.node[8].appl 	meanClusterHeadUtility 	9.1612534278418
scalar RSUExampleScenario.node[8].appl 	NumberofCH 	0.10810810810811
scalar RSUExampleScenario.node[8].appl 	NumberofON 	0.24324324324324
scalar RSUExampleScenario.node[8].appl 	NumberofFN 	0.64864864864865
scalar RSUExampleScenario.node[8].veinsmobility 	startTime 	19.3
scalar RSUExampleScenario.node[8].veinsmobility 	totalTime 	430.7
scalar RSUExampleScenario.node[8].veinsmobility 	stopTime 	450
scalar RSUExampleScenario.node[8].veinsmobility 	minSpeed 	0
scalar RSUExampleScenario.node[8].veinsmobility 	maxSpeed 	13.999981833247
scalar RSUExampleScenario.node[8].veinsmobility 	totalDistance 	2857.2108028335
scalar RSUExampleScenario.node[8].veinsmobility 	totalCO2Emission 	772.45377629835
scalar RSUExampleScenario.node[80].appl 	meanClusterNodes 	6
scalar RSUExampleScenario.node[80].appl 	meanClusterHeadUtility 	11.279580893237
scalar RSUExampleScenario.node[80].appl 	NumberofCH 	0.081081081081081
scalar RSUExampleScenario.node[80].appl 	NumberofON 	0.48648648648649
scalar RSUExampleScenario.node[80].appl 	NumberofFN 	0.43243243243243
scalar RSUExampleScenario.node[80].veinsmobility 	startTime 	192.9
scalar RSUExampleScenario.node[80].veinsmobility 	totalTime 	257.1
scalar RSUExampleScenario.node[80].veinsmobility 	stopTime 	450
scalar RSUExampleScenario.node[80].veinsmobility 	minSpeed 	0
scalar RSUExampleScenario.node[80].veinsmobility 	maxSpeed 	13.999705499359
scalar RSUExampleScenario.node[80].veinsmobility 	totalDistance 	490.16243105465
scalar RSUExampleScenario.node[80].veinsmobility 	totalCO2Emission 	350.46155540391
scalar RSUExampleScenario.node[81].appl 	meanClusterNodes 	4.25
scalar RSUExampleScenario.node[81].appl 	meanClusterHeadUtility 	9.0180230540092
scalar RSUExampleScenario.node[81].appl 	NumberofCH 	0.10810810810811
scalar RSUExampleScenario.node[81].appl 	NumberofON 	0.64864864864865
scalar RSUExampleScenario.node[81].appl 	NumberofFN 	0.24324324324324
scalar RSUExampleScenario.node[81].veinsmobility 	startTime 	195.3
scalar RSUExampleScenario.node[81].veinsmobility 	totalTime 	254.7
scalar RSUExampleScenario.node[81].veinsmobility 	stopTime 	450
scalar RSUExampleScenario.node[81].veinsmobility 	minSpeed 	0
scalar RSUExampleScenario.node[81].veinsmobility 	maxSpeed 	13.999034304703
scalar RSUExampleScenario.node[81].veinsmobility 	totalDistance 	457.32751714158
scalar RSUExampleScenario.node[81].veinsmobility 	totalCO2Emission 	344.45763906247
scalar RSUExampleScenario.node[82].appl 	meanClusterNodes 	11
scalar RSUExampleScenario.node[82].appl 	meanClusterHeadUtility 	11.816400928149
scalar RSUExampleScenario.node[82].appl 	NumberofCH 	0.081081081081081
scalar RSUExampleScenario.node[82].appl 	NumberofON 	0.37837837837838
scalar RSUExampleScenario.node[82].appl 	NumberofFN 	0.54054054054054
scalar RSUExampleScenario.node[82].veinsmobility 	startTime 	197.7
scalar RSUExampleScenario.node[82].veinsmobility 	totalTime 	252.3
scalar RSUExampleScenario.node[82].veinsmobility 	stopTime 	450
scalar RSUExampleScenario.node[82].veinsmobility 	minSpeed 	0
scalar RSUExampleScenario.node[82].veinsmobility 	maxSpeed 	13.999327795452
scalar RSUExampleScenario.node[82].veinsmobility 	totalDistance 	424.70322633359
scalar RSUExampleScenario.node[82].veinsmobility 	totalCO2Emission 	340.5731658434
scalar RSUExampleScenario.node[83].appl 	meanClusterNodes 	3.5
scalar RSUExampleScenario.node[83].appl 	meanClusterHeadUtility 	8.8501121355263
scalar RSUExampleScenario.node[83].appl 	NumberofCH 	0.10810810810811
scalar RSUExampleScenario.node[83].appl 	NumberofON 	0.56756756756757
scalar RSUExampleScenario.node[83].appl 	NumberofFN 	0.32432432432432
scalar RSUExampleScenario.node[83].veinsmobility 	startTime 	200.1
scalar RSUExampleScenario.node[83].veinsmobility 	totalTime 	249.9
scalar RSUExampleScenario.node[83].veinsmobility 	stopTime 	450
scalar RSUExampleScenario.node[83].veinsmobility 	minSpeed 	0
scalar RSUExampleScenario.node[83].veinsmobility 	maxSpeed 	13.992837637474
scalar RSUExampleScenario.node[83].veinsmobility 	totalDistance 	391.86015465604
scalar RSUExampleScenario.node[83].veinsmobility 	totalCO2Emission 	333.68303186323
scalar RSUExampleScenario.node[84].appl 	meanClusterNodes 	5.5
scalar RSUExampleScenario.node[84].appl 	meanClusterHeadUtility 	8.3950315164976
scalar RSUExampleScenario.node[84].appl 	NumberofCH 	0.10810810810811
scalar RSUExampleScenario.node[84].appl 	NumberofON 	0.62162162162162
scalar RSUExampleScenario.node[84].appl 	NumberofFN 	0.27027027027027
scalar RSUExampleScenario.node[84].veinsmobility 	startTime 	202.5
scalar RSUExampleScenario.node[84].veinsmobility 	totalTime 	247.5
scalar RSUExampleScenario.node[84].veinsmobility 	stopTime 	450
scalar RSUExampleScenario.node[84].veinsmobility 	minSpeed 	0
scalar RSUExampleScenario.node[84].veinsmobility 	maxSpeed 	13.997265988924
scalar RSUExampleScenario.node[84].veinsmobility 	totalDistance 	356.68652432858
scalar RSUExampleScenario.node[84].veinsmobility 	totalCO2Emission 	329.00971837252
scalar RSUExampleScenario.node[85].appl 	meanClusterNodes 	1
scalar RSUExampleScenario.node[85].appl 	meanClusterHeadUtility 	17.304046354738
scalar RSUExampleScenario.node[85].appl 	NumberofCH 	0.054054054054054
scalar RSUExampleScenario.node[85].appl 	NumberofON 	0.27027027027027
scalar RSUExampleScenario.node[85].appl 	NumberofFN 	0.67567567567568
scalar RSUExampleScenario.node[85].veinsmobility 	startTime 	204.9
scalar RSUExampleScenario.node[85].veinsmobility 	totalTime 	245.1
scalar RSUExampleScenario.node[85].veinsmobility 	stopTime 	450
scalar RSUExampleScenario.node[85].veinsmobility 	minSpeed 	0
scalar RSUExampleScenario.node[85].veinsmobility 	maxSpeed 	13.999462961461
scalar RSUExampleScenario.node[85].veinsmobility 	totalDistance 	322.05591652698
scalar RSUExampleScenario.node[85].veinsmobility 	totalCO2Emission 	322.38571661645
scalar RSUExampleScenario.node[86].appl 	meanClusterNodes 	2.25
scalar RSUExampleScenario.node[86].appl 	meanClusterHeadUtility 	8.8442060169919
scalar RSUExampleScenario.node[86].appl 	NumberofCH 	0.10810810810811
scalar RSUExampleScenario.node[86].appl 	NumberofON 	0.67567567567568
scalar RSUExampleScenario.node[86].appl 	NumberofFN 	0.21621621621622
scalar RSUExampleScenario.node[86].veinsmobility 	startTime 	207.3
scalar RSUExampleScenario.node[86].veinsmobility 	totalTime 	242.7
scalar RSUExampleScenario.node[86].veinsmobility 	stopTime 	450
scalar RSUExampleScenario.node[86].veinsmobility 	minSpeed 	0
scalar RSUExampleScenario.node[86].veinsmobility 	maxSpeed 	13.817450780674
scalar RSUExampleScenario.node[86].veinsmobility 	totalDistance 	288.26987927326
scalar RSUExampleScenario.node[86].veinsmobility 	totalCO2Emission 	315.89228145292
scalar RSUExampleScenario.node[87].appl 	meanClusterNodes 	7.5
scalar RSUExampleScenario.node[87].appl 	meanClusterHeadUtility 	8.8768491104003
scalar RSUExampleScenario.node[87].appl 	NumberofCH 	0.10810810810811
scalar