version 2
run statisticLeach-70-20150323-02:23:38-10148
attr c 31
attr configname statisticLeach
attr datetime 20150323-02:23:38
attr experiment statisticLeach
attr inifile omnetpp.ini
attr iterationvars "$p=1/25, $c=31"
attr iterationvars2 "$p=1/25, $c=31, $repetition=0"
attr measurement "$p=1/25, $c=31"
attr network RSUExampleScenario
attr p 1/25
attr processid 10148
attr repetition 0
attr replication #0
attr resultdir results
attr runnumber 70
attr seedset 70

scalar . 	c 	31
scalar RSUExampleScenario.node[0].appl 	meanClusterNodes 	5.5
scalar RSUExampleScenario.node[0].appl 	meanClusterHeadUtility 	17.103107393931
scalar RSUExampleScenario.node[0].appl 	NumberofCH 	0.054054054054054
scalar RSUExampleScenario.node[0].appl 	NumberofON 	0.13513513513514
scalar RSUExampleScenario.node[0].appl 	NumberofFN 	0.81081081081081
scalar RSUExampleScenario.node[0].veinsmobility 	startTime 	0.1
scalar RSUExampleScenario.node[0].veinsmobility 	totalTime 	449.9
scalar RSUExampleScenario.node[0].veinsmobility 	stopTime 	450
scalar RSUExampleScenario.node[0].veinsmobility 	minSpeed 	0
scalar RSUExampleScenario.node[0].veinsmobility 	maxSpeed 	13.999963091675
scalar RSUExampleScenario.node[0].veinsmobility 	totalDistance 	3138.2817033008
scalar RSUExampleScenario.node[0].veinsmobility 	totalCO2Emission 	841.55202371799
scalar RSUExampleScenario.node[1].appl 	meanClusterNodes 	0
scalar RSUExampleScenario.node[1].appl 	meanClusterHeadUtility 	0
scalar RSUExampleScenario.node[1].appl 	NumberofCH 	0
scalar RSUExampleScenario.node[1].appl 	NumberofON 	0.081081081081081
scalar RSUExampleScenario.node[1].appl 	NumberofFN 	0.91891891891892
scalar RSUExampleScenario.node[1].veinsmobility 	startTime 	2.5
scalar RSUExampleScenario.node[1].veinsmobility 	totalTime 	447.5
scalar RSUExampleScenario.node[1].veinsmobility 	stopTime 	450
scalar RSUExampleScenario.node[1].veinsmobility 	minSpeed 	0
scalar RSUExampleScenario.node[1].veinsmobility 	maxSpeed 	13.999673828394
scalar RSUExampleScenario.node[1].veinsmobility 	totalDistance 	3087.4674739681
scalar RSUExampleScenario.node[1].veinsmobility 	totalCO2Emission 	830.48091963411
scalar RSUExampleScenario.node[10].appl 	meanClusterNodes 	4.5
scalar RSUExampleScenario.node[10].appl 	meanClusterHeadUtility 	17.287013399583
scalar RSUExampleScenario.node[10].appl 	NumberofCH 	0.054054054054054
scalar RSUExampleScenario.node[10].appl 	NumberofON 	0.32432432432432
scalar RSUExampleScenario.node[10].appl 	NumberofFN 	0.62162162162162
scalar RSUExampleScenario.node[10].veinsmobility 	startTime 	24.2
scalar RSUExampleScenario.node[10].veinsmobility 	totalTime 	425.8
scalar RSUExampleScenario.node[10].veinsmobility 	stopTime 	450
scalar RSUExampleScenario.node[10].veinsmobility 	minSpeed 	0
scalar RSUExampleScenario.node[10].veinsmobility 	maxSpeed 	13.999810704484
scalar RSUExampleScenario.node[10].veinsmobility 	totalDistance 	2789.2304655849
scalar RSUExampleScenario.node[10].veinsmobility 	totalCO2Emission 	760.17140519593
scalar RSUExampleScenario.node[11].appl 	meanClusterNodes 	0
scalar RSUExampleScenario.node[11].appl 	meanClusterHeadUtility 	0
scalar RSUExampleScenario.node[11].appl 	NumberofCH 	0
scalar RSUExampleScenario.node[11].appl 	NumberofON 	0.35135135135135
scalar RSUExampleScenario.node[11].appl 	NumberofFN 	0.64864864864865
scalar RSUExampleScenario.node[11].veinsmobility 	startTime 	26.6
scalar RSUExampleScenario.node[11].veinsmobility 	totalTime 	423.4
scalar RSUExampleScenario.node[11].veinsmobility 	stopTime 	450
scalar RSUExampleScenario.node[11].veinsmobility 	minSpeed 	0
scalar RSUExampleScenario.node[11].veinsmobility 	maxSpeed 	13.999932885226
scalar RSUExampleScenario.node[11].veinsmobility 	totalDistance 	2757.8506068833
scalar RSUExampleScenario.node[11].veinsmobility 	totalCO2Emission 	752.74054431706
scalar RSUExampleScenario.node[12].appl 	meanClusterNodes 	7
scalar RSUExampleScenario.node[12].appl 	meanClusterHeadUtility 	18.040438423216
scalar RSUExampleScenario.node[12].appl 	NumberofCH 	0.054054054054054
scalar RSUExampleScenario.node[12].appl 	NumberofON 	0.16216216216216
scalar RSUExampleScenario.node[12].appl 	NumberofFN 	0.78378378378378
scalar RSUExampleScenario.node[12].veinsmobility 	startTime 	29
scalar RSUExampleScenario.node[12].veinsmobility 	totalTime 	421
scalar RSUExampleScenario.node[12].veinsmobility 	stopTime 	450
scalar RSUExampleScenario.node[12].veinsmobility 	minSpeed 	0
scalar RSUExampleScenario.node[12].veinsmobility 	maxSpeed 	13.99979509919
scalar RSUExampleScenario.node[12].veinsmobility 	totalDistance 	2717.0576144353
scalar RSUExampleScenario.node[12].veinsmobility 	totalCO2Emission 	749.01247278576
scalar RSUExampleScenario.node[13].appl 	meanClusterNodes 	0
scalar RSUExampleScenario.node[13].appl 	meanClusterHeadUtility 	0
scalar RSUExampleScenario.node[13].appl 	NumberofCH 	0
scalar RSUExampleScenario.node[13].appl 	NumberofON 	0.37837837837838
scalar RSUExampleScenario.node[13].appl 	NumberofFN 	0.62162162162162
scalar RSUExampleScenario.node[13].veinsmobility 	startTime 	31.4
scalar RSUExampleScenario.node[13].veinsmobility 	totalTime 	418.6
scalar RSUExampleScenario.node[13].veinsmobility 	stopTime 	450
scalar RSUExampleScenario.node[13].veinsmobility 	minSpeed 	0
scalar RSUExampleScenario.node[13].veinsmobility 	maxSpeed 	13.999958813053
scalar RSUExampleScenario.node[13].veinsmobility 	totalDistance 	2684.3009079787
scalar RSUExampleScenario.node[13].veinsmobility 	totalCO2Emission 	741.08232317847
scalar RSUExampleScenario.node[14].appl 	meanClusterNodes 	0
scalar RSUExampleScenario.node[14].appl 	meanClusterHeadUtility 	0
scalar RSUExampleScenario.node[14].appl 	NumberofCH 	0
scalar RSUExampleScenario.node[14].appl 	NumberofON 	0.2972972972973
scalar RSUExampleScenario.node[14].appl 	NumberofFN 	0.7027027027027
scalar RSUExampleScenario.node[14].veinsmobility 	startTime 	33.8
scalar RSUExampleScenario.node[14].veinsmobility 	totalTime 	416.2
scalar RSUExampleScenario.node[14].veinsmobility 	stopTime 	450
scalar RSUExampleScenario.node[14].veinsmobility 	minSpeed 	0
scalar RSUExampleScenario.node[14].veinsmobility 	maxSpeed 	13.999815412003
scalar RSUExampleScenario.node[14].veinsmobility 	totalDistance 	2647.5723342
scalar RSUExampleScenario.node[14].veinsmobility 	totalCO2Emission 	731.59525860694
scalar RSUExampleScenario.node[15].appl 	meanClusterNodes 	4
scalar RSUExampleScenario.node[15].appl 	meanClusterHeadUtility 	15.313606147237
scalar RSUExampleScenario.node[15].appl 	NumberofCH 	0.054054054054054
scalar RSUExampleScenario.node[15].appl 	NumberofON 	0.43243243243243
scalar RSUExampleScenario.node[15].appl 	NumberofFN 	0.51351351351351
scalar RSUExampleScenario.node[15].veinsmobility 	startTime 	36.2
scalar RSUExampleScenario.node[15].veinsmobility 	totalTime 	413.8
scalar RSUExampleScenario.node[15].veinsmobility 	stopTime 	450
scalar RSUExampleScenario.node[15].veinsmobility 	minSpeed 	0
scalar RSUExampleScenario.node[15].veinsmobility 	maxSpeed 	13.99995713088
scalar RSUExampleScenario.node[15].veinsmobility 	totalDistance 	2616.5220360041
scalar RSUExampleScenario.node[15].veinsmobility 	totalCO2Emission 	726.84331375103
scalar RSUExampleScenario.node[16].appl 	meanClusterNodes 	0
scalar RSUExampleScenario.node[16].appl 	meanClusterHeadUtility 	0
scalar RSUExampleScenario.node[16].appl 	NumberofCH 	0
scalar RSUExampleScenario.node[16].appl 	NumberofON 	0.40540540540541
scalar RSUExampleScenario.node[16].appl 	NumberofFN 	0.59459459459459
scalar RSUExampleScenario.node[16].veinsmobility 	startTime 	38.6
scalar RSUExampleScenario.node[16].veinsmobility 	totalTime 	411.4
scalar RSUExampleScenario.node[16].veinsmobility 	stopTime 	450
scalar RSUExampleScenario.node[16].veinsmobility 	minSpeed 	0
scalar RSUExampleScenario.node[16].veinsmobility 	maxSpeed 	13.999389231529
scalar RSUExampleScenario.node[16].veinsmobility 	totalDistance 	2579.6076850162
scalar RSUExampleScenario.node[16].veinsmobility 	totalCO2Emission 	723.82651676118
scalar RSUExampleScenario.node[17].appl 	meanClusterNodes 	6
scalar RSUExampleScenario.node[17].appl 	meanClusterHeadUtility 	17.777455715892
scalar RSUExampleScenario.node[17].appl 	NumberofCH 	0.054054054054054
scalar RSUExampleScenario.node[17].appl 	NumberofON 	0.35135135135135
scalar RSUExampleScenario.node[17].appl 	NumberofFN 	0.59459459459459
scalar RSUExampleScenario.node[17].veinsmobility 	startTime 	41
scalar RSUExampleScenario.node[17].veinsmobility 	totalTime 	409
scalar RSUExampleScenario.node[17].veinsmobility 	stopTime 	450
scalar RSUExampleScenario.node[17].veinsmobility 	minSpeed 	0
scalar RSUExampleScenario.node[17].veinsmobility 	maxSpeed 	13.999686567099
scalar RSUExampleScenario.node[17].veinsmobility 	totalDistance 	2543.9259314542
scalar RSUExampleScenario.node[17].veinsmobility 	totalCO2Emission 	719.33491069688
scalar RSUExampleScenario.node[18].appl 	meanClusterNodes 	11.5
scalar RSUExampleScenario.node[18].appl 	meanClusterHeadUtility 	8.4523213624857
scalar RSUExampleScenario.node[18].appl 	NumberofCH 	0.10810810810811
scalar RSUExampleScenario.node[18].appl 	NumberofON 	0.21621621621622
scalar RSUExampleScenario.node[18].appl 	NumberofFN 	0.67567567567568
scalar RSUExampleScenario.node[18].veinsmobility 	startTime 	43.4
scalar RSUExampleScenario.node[18].veinsmobility 	totalTime 	406.6
scalar RSUExampleScenario.node[18].veinsmobility 	stopTime 	450
scalar RSUExampleScenario.node[18].veinsmobility 	minSpeed 	0
scalar RSUExampleScenario.node[18].veinsmobility 	maxSpeed 	13.999938665866
scalar RSUExampleScenario.node[18].veinsmobility 	totalDistance 	2502.8243502423
scalar RSUExampleScenario.node[18].veinsmobility 	totalCO2Emission 	711.0212429177
scalar RSUExampleScenario.node[19].appl 	meanClusterNodes 	0
scalar RSUExampleScenario.node[19].appl 	meanClusterHeadUtility 	0
scalar RSUExampleScenario.node[19].appl 	NumberofCH 	0
scalar RSUExampleScenario.node[19].appl 	NumberofON 	0.2972972972973
scalar RSUExampleScenario.node[19].appl 	NumberofFN 	0.7027027027027
scalar RSUExampleScenario.node[19].veinsmobility 	startTime 	45.8
scalar RSUExampleScenario.node[19].veinsmobility 	totalTime 	404.2
scalar RSUExampleScenario.node[19].veinsmobility 	stopTime 	450
scalar RSUExampleScenario.node[19].veinsmobility 	minSpeed 	0
scalar RSUExampleScenario.node[19].veinsmobility 	maxSpeed 	13.999979240613
scalar RSUExampleScenario.node[19].veinsmobility 	totalDistance 	2474.8767389009
scalar RSUExampleScenario.node[19].veinsmobility 	totalCO2Emission 	703.18254719422
scalar RSUExampleScenario.node[2].appl 	meanClusterNodes 	3
scalar RSUExampleScenario.node[2].appl 	meanClusterHeadUtility 	18.345715271641
scalar RSUExampleScenario.node[2].appl 	NumberofCH 	0.054054054054054
scalar RSUExampleScenario.node[2].appl 	NumberofON 	0.27027027027027
scalar RSUExampleScenario.node[2].appl 	NumberofFN 	0.67567567567568
scalar RSUExampleScenario.node[2].veinsmobility 	startTime 	4.9
scalar RSUExampleScenario.node[2].veinsmobility 	totalTime 	445.1
scalar RSUExampleScenario.node[2].veinsmobility 	stopTime 	450
scalar RSUExampleScenario.node[2].veinsmobility 	minSpeed 	0
scalar RSUExampleScenario.node[2].veinsmobility 	maxSpeed 	13.999921876972
scalar RSUExampleScenario.node[2].veinsmobility 	totalDistance 	3038.6424474521
scalar RSUExampleScenario.node[2].veinsmobility 	totalCO2Emission 	816.88178329754
scalar RSUExampleScenario.node[20].appl 	meanClusterNodes 	0
scalar RSUExampleScenario.node[20].appl 	meanClusterHeadUtility 	0
scalar RSUExampleScenario.node[20].appl 	NumberofCH 	0
scalar RSUExampleScenario.node[20].appl 	NumberofON 	0.2972972972973
scalar RSUExampleScenario.node[20].appl 	NumberofFN 	0.7027027027027
scalar RSUExampleScenario.node[20].veinsmobility 	startTime 	48.3
scalar RSUExampleScenario.node[20].veinsmobility 	totalTime 	401.7
scalar RSUExampleScenario.node[20].veinsmobility 	stopTime 	450
scalar RSUExampleScenario.node[20].veinsmobility 	minSpeed 	0
scalar RSUExampleScenario.node[20].veinsmobility 	maxSpeed 	13.999918032303
scalar RSUExampleScenario.node[20].veinsmobility 	totalDistance 	2437.6895265885
scalar RSUExampleScenario.node[20].veinsmobility 	totalCO2Emission 	701.55881037916
scalar RSUExampleScenario.node[21].appl 	meanClusterNodes 	0
scalar RSUExampleScenario.node[21].appl 	meanClusterHeadUtility 	0
scalar RSUExampleScenario.node[21].appl 	NumberofCH 	0
scalar RSUExampleScenario.node[21].appl 	NumberofON 	0.10810810810811
scalar RSUExampleScenario.node[21].appl 	NumberofFN 	0.89189189189189
scalar RSUExampleScenario.node[21].veinsmobility 	startTime 	50.7
scalar RSUExampleScenario.node[21].veinsmobility 	totalTime 	399.3
scalar RSUExampleScenario.node[21].veinsmobility 	stopTime 	450
scalar RSUExampleScenario.node[21].veinsmobility 	minSpeed 	0
scalar RSUExampleScenario.node[21].veinsmobility 	maxSpeed 	13.999937062631
scalar RSUExampleScenario.node[21].veinsmobility 	totalDistance 	2409.292119963
scalar RSUExampleScenario.node[21].veinsmobility 	totalCO2Emission 	694.65807351749
scalar RSUExampleScenario.node[22].appl 	meanClusterNodes 	0
scalar RSUExampleScenario.node[22].appl 	meanClusterHeadUtility 	0
scalar RSUExampleScenario.node[22].appl 	NumberofCH 	0
scalar RSUExampleScenario.node[22].appl 	NumberofON 	0.2972972972973
scalar RSUExampleScenario.node[22].appl 	NumberofFN 	0.7027027027027
scalar RSUExampleScenario.node[22].veinsmobility 	startTime 	53.1
scalar RSUExampleScenario.node[22].veinsmobility 	totalTime 	396.9
scalar RSUExampleScenario.node[22].veinsmobility 	stopTime 	450
scalar RSUExampleScenario.node[22].veinsmobility 	minSpeed 	0
scalar RSUExampleScenario.node[22].veinsmobility 	maxSpeed 	13.999880527123
scalar RSUExampleScenario.node[22].veinsmobility 	totalDistance 	2368.9066751627
scalar RSUExampleScenario.node[22].veinsmobility 	totalCO2Emission 	687.82536349518
scalar RSUExampleScenario.node[23].appl 	meanClusterNodes 	0
scalar RSUExampleScenario.node[23].appl 	meanClusterHeadUtility 	0
scalar RSUExampleScenario.node[23].appl 	NumberofCH 	0
scalar RSUExampleScenario.node[23].appl 	NumberofON 	0.51351351351351
scalar RSUExampleScenario.node[23].appl 	NumberofFN 	0.48648648648649
scalar RSUExampleScenario.node[23].veinsmobility 	startTime 	55.5
scalar RSUExampleScenario.node[23].veinsmobility 	totalTime 	394.5
scalar RSUExampleScenario.node[23].veinsmobility 	stopTime 	450
scalar RSUExampleScenario.node[23].veinsmobility 	minSpeed 	0
scalar RSUExampleScenario.node[23].veinsmobility 	maxSpeed 	13.999907229659
scalar RSUExampleScenario.node[23].veinsmobility 	totalDistance 	2340.405868202
scalar RSUExampleScenario.node[23].veinsmobility 	totalCO2Emission 	685.21295104954
scalar RSUExampleScenario.node[24].appl 	meanClusterNodes 	3
scalar RSUExampleScenario.node[24].appl 	meanClusterHeadUtility 	33.190646349342
scalar RSUExampleScenario.node[24].appl 	NumberofCH 	0.027027027027027
scalar RSUExampleScenario.node[24].appl 	NumberofON 	0.35135135135135
scalar RSUExampleScenario.node[24].appl 	NumberofFN 	0.62162162162162
scalar RSUExampleScenario.node[24].veinsmobility 	startTime 	57.9
scalar RSUExampleScenario.node[24].veinsmobility 	totalTime 	392.1
scalar RSUExampleScenario.node[24].veinsmobility 	stopTime 	450
scalar RSUExampleScenario.node[24].veinsmobility 	minSpeed 	0
scalar RSUExampleScenario.node[24].veinsmobility 	maxSpeed 	13.999758012979
scalar RSUExampleScenario.node[24].veinsmobility 	totalDistance 	2301.3817733842
scalar RSUExampleScenario.node[24].veinsmobility 	totalCO2Emission 	674.75762335893
scalar RSUExampleScenario.node[25].appl 	meanClusterNodes 	0
scalar RSUExampleScenario.node[25].appl 	meanClusterHeadUtility 	0
scalar RSUExampleScenario.node[25].appl 	NumberofCH 	0
scalar RSUExampleScenario.node[25].appl 	NumberofON 	0.40540540540541
scalar RSUExampleScenario.node[25].appl 	NumberofFN 	0.59459459459459
scalar RSUExampleScenario.node[25].veinsmobility 	startTime 	60.3
scalar RSUExampleScenario.node[25].veinsmobility 	totalTime 	389.7
scalar RSUExampleScenario.node[25].veinsmobility 	stopTime 	450
scalar RSUExampleScenario.node[25].veinsmobility 	minSpeed 	0
scalar RSUExampleScenario.node[25].veinsmobility 	maxSpeed 	13.999908808074
scalar RSUExampleScenario.node[25].veinsmobility 	totalDistance 	2271.589278966
scalar RSUExampleScenario.node[25].veinsmobility 	totalCO2Emission 	670.16654079247
scalar RSUExampleScenario.node[26].appl 	meanClusterNodes 	5
scalar RSUExampleScenario.node[26].appl 	meanClusterHeadUtility 	17.47048727481
scalar RSUExampleScenario.node[26].appl 	NumberofCH 	0.054054054054054
scalar RSUExampleScenario.node[26].appl 	NumberofON 	0.24324324324324
scalar RSUExampleScenario.node[26].appl 	NumberofFN 	0.7027027027027
scalar RSUExampleScenario.node[26].veinsmobility 	startTime 	62.7
scalar RSUExampleScenario.node[26].veinsmobility 	totalTime 	387.3
scalar RSUExampleScenario.node[26].veinsmobility 	stopTime 	450
scalar RSUExampleScenario.node[26].veinsmobility 	minSpeed 	0
scalar RSUExampleScenario.node[26].veinsmobility 	maxSpeed 	13.999995710785
scalar RSUExampleScenario.node[26].veinsmobility 	totalDistance 	2234.6628171252
scalar RSUExampleScenario.node[26].veinsmobility 	totalCO2Emission 	668.68984651948
scalar RSUExampleScenario.node[27].appl 	meanClusterNodes 	10
scalar RSUExampleScenario.node[27].appl 	meanClusterHeadUtility 	17.34484181125
scalar RSUExampleScenario.node[27].appl 	NumberofCH 	0.054054054054054
scalar RSUExampleScenario.node[27].appl 	NumberofON 	0.24324324324324
scalar RSUExampleScenario.node[27].appl 	NumberofFN 	0.7027027027027
scalar RSUExampleScenario.node[27].veinsmobility 	startTime 	65.1
scalar RSUExampleScenario.node[27].veinsmobility 	totalTime 	384.9
scalar RSUExampleScenario.node[27].veinsmobility 	stopTime 	450
scalar RSUExampleScenario.node[27].veinsmobility 	minSpeed 	0
scalar RSUExampleScenario.node[27].veinsmobility 	maxSpeed 	13.999870973004
scalar RSUExampleScenario.node[27].veinsmobility 	totalDistance 	2205.0684293914
scalar RSUExampleScenario.node[27].veinsmobility 	totalCO2Emission 	662.12467735427
scalar RSUExampleScenario.node[28].appl 	meanClusterNodes 	10
scalar RSUExampleScenario.node[28].appl 	meanClusterHeadUtility 	15.589553335821
scalar RSUExampleScenario.node[28].appl 	NumberofCH 	0.054054054054054
scalar RSUExampleScenario.node[28].appl 	NumberofON 	0.35135135135135
scalar RSUExampleScenario.node[28].appl 	NumberofFN 	0.59459459459459
scalar RSUExampleScenario.node[28].veinsmobility 	startTime 	67.5
scalar RSUExampleScenario.node[28].veinsmobility 	totalTime 	382.5
scalar RSUExampleScenario.node[28].veinsmobility 	stopTime 	450
scalar RSUExampleScenario.node[28].veinsmobility 	minSpeed 	0
scalar RSUExampleScenario.node[28].veinsmobility 	maxSpeed 	13.999992937692
scalar RSUExampleScenario.node[28].veinsmobility 	totalDistance 	2166.600425467
scalar RSUExampleScenario.node[28].veinsmobility 	totalCO2Emission 	656.96669442186
scalar RSUExampleScenario.node[29].appl 	meanClusterNodes 	6
scalar RSUExampleScenario.node[29].appl 	meanClusterHeadUtility 	17.712116704273
scalar RSUExampleScenario.node[29].appl 	NumberofCH 	0.054054054054054
scalar RSUExampleScenario.node[29].appl 	NumberofON 	0.43243243243243
scalar RSUExampleScenario.node[29].appl 	NumberofFN 	0.51351351351351
scalar RSUExampleScenario.node[29].veinsmobility 	startTime 	69.9
scalar RSUExampleScenario.node[29].veinsmobility 	totalTime 	380.1
scalar RSUExampleScenario.node[29].veinsmobility 	stopTime 	450
scalar RSUExampleScenario.node[29].veinsmobility 	minSpeed 	0
scalar RSUExampleScenario.node[29].veinsmobility 	maxSpeed 	13.999865857593
scalar RSUExampleScenario.node[29].veinsmobility 	totalDistance 	2135.6105699769
scalar RSUExampleScenario.node[29].veinsmobility 	totalCO2Emission 	649.98876438662
scalar RSUExampleScenario.node[3].appl 	meanClusterNodes 	4
scalar RSUExampleScenario.node[3].appl 	meanClusterHeadUtility 	17.412798371447
scalar RSUExampleScenario.node[3].appl 	NumberofCH 	0.054054054054054
scalar RSUExampleScenario.node[3].appl 	NumberofON 	0.32432432432432
scalar RSUExampleScenario.node[3].appl 	NumberofFN 	0.62162162162162
scalar RSUExampleScenario.node[3].veinsmobility 	startTime 	7.3
scalar RSUExampleScenario.node[3].veinsmobility 	totalTime 	442.7
scalar RSUExampleScenario.node[3].veinsmobility 	stopTime 	450
scalar RSUExampleScenario.node[3].veinsmobility 	minSpeed 	0
scalar RSUExampleScenario.node[3].veinsmobility 	maxSpeed 	13.999961122016
scalar RSUExampleScenario.node[3].veinsmobility 	totalDistance 	2996.9065578009
scalar RSUExampleScenario.node[3].veinsmobility 	totalCO2Emission 	813.74721884753
scalar RSUExampleScenario.node[30].appl 	meanClusterNodes 	8
scalar RSUExampleScenario.node[30].appl 	meanClusterHeadUtility 	17.511373210277
scalar RSUExampleScenario.node[30].appl 	NumberofCH 	0.054054054054054
scalar RSUExampleScenario.node[30].appl 	NumberofON 	0.43243243243243
scalar RSUExampleScenario.node[30].appl 	NumberofFN 	0.51351351351351
scalar RSUExampleScenario.node[30].veinsmobility 	startTime 	72.4
scalar RSUExampleScenario.node[30].veinsmobility 	totalTime 	377.6
scalar RSUExampleScenario.node[30].veinsmobility 	stopTime 	450
scalar RSUExampleScenario.node[30].veinsmobility 	minSpeed 	0
scalar RSUExampleScenario.node[30].veinsmobility 	maxSpeed 	13.999999723805
scalar RSUExampleScenario.node[30].veinsmobility 	totalDistance 	2099.8966563417
scalar RSUExampleScenario.node[30].veinsmobility 	totalCO2Emission 	645.45036921354
scalar RSUExampleScenario.node[31].appl 	meanClusterNodes 	4
scalar RSUExampleScenario.node[31].appl 	meanClusterHeadUtility 	17.081003108028
scalar RSUExampleScenario.node[31].appl 	NumberofCH 	0.054054054054054
scalar RSUExampleScenario.node[31].appl 	NumberofON 	0.27027027027027
scalar RSUExampleScenario.node[31].appl 	NumberofFN 	0.67567567567568
scalar RSUExampleScenario.node[31].veinsmobility 	startTime 	74.8
scalar RSUExampleScenario.node[31].veinsmobility 	totalTime 	375.2
scalar RSUExampleScenario.node[31].veinsmobility 	stopTime 	450
scalar RSUExampleScenario.node[31].veinsmobility 	minSpeed 	0
scalar RSUExampleScenario.node[31].veinsmobility 	maxSpeed 	13.999965683885
scalar RSUExampleScenario.node[31].veinsmobility 	totalDistance 	2068.3948276653
scalar RSUExampleScenario.node[31].veinsmobility 	totalCO2Emission 	638.07609155606
scalar RSUExampleScenario.node[32].appl 	meanClusterNodes 	3
scalar RSUExampleScenario.node[32].appl 	meanClusterHeadUtility 	16.204476129896
scalar RSUExampleScenario.node[32].appl 	NumberofCH 	0.054054054054054
scalar RSUExampleScenario.node[32].appl 	NumberofON 	0.56756756756757
scalar RSUExampleScenario.node[32].appl 	NumberofFN 	0.37837837837838
scalar RSUExampleScenario.node[32].veinsmobility 	startTime 	77.2
scalar RSUExampleScenario.node[32].veinsmobility 	totalTime 	372.8
scalar RSUExampleScenario.node[32].veinsmobility 	stopTime 	450
scalar RSUExampleScenario.node[32].veinsmobility 	minSpeed 	0
scalar RSUExampleScenario.node[32].veinsmobility 	maxSpeed 	13.999782041884
scalar RSUExampleScenario.node[32].veinsmobility 	totalDistance 	2033.265325463
scalar RSUExampleScenario.node[32].veinsmobility 	totalCO2Emission 	633.5688755178
scalar RSUExampleScenario.node[33].appl 	meanClusterNodes 	6
scalar RSUExampleScenario.node[33].appl 	meanClusterHeadUtility 	17.39680773849
scalar RSUExampleScenario.node[33].appl 	NumberofCH 	0.054054054054054
scalar RSUExampleScenario.node[33].appl 	NumberofON 	0.45945945945946
scalar RSUExampleScenario.node[33].appl 	NumberofFN 	0.48648648648649
scalar RSUExampleScenario.node[33].veinsmobility 	startTime 	79.6
scalar RSUExampleScenario.node[33].veinsmobility 	totalTime 	370.4
scalar RSUExampleScenario.node[33].veinsmobility 	stopTime 	450
scalar RSUExampleScenario.node[33].veinsmobility 	minSpeed 	0
scalar RSUExampleScenario.node[33].veinsmobility 	maxSpeed 	13.999691016856
scalar RSUExampleScenario.node[33].veinsmobility 	totalDistance 	1999.5656619866
scalar RSUExampleScenario.node[33].veinsmobility 	totalCO2Emission 	627.49618195336
scalar RSUExampleScenario.node[34].appl 	meanClusterNodes 	0
scalar RSUExampleScenario.node[34].appl 	meanClusterHeadUtility 	0
scalar RSUExampleScenario.node[34].appl 	NumberofCH 	0
scalar RSUExampleScenario.node[34].appl 	NumberofON 	0.43243243243243
scalar RSUExampleScenario.node[34].appl 	NumberofFN 	0.56756756756757
scalar RSUExampleScenario.node[34].veinsmobility 	startTime 	82
scalar RSUExampleScenario.node[34].veinsmobility 	totalTime 	368
scalar RSUExampleScenario.node[34].veinsmobility 	stopTime 	450
scalar RSUExampleScenario.node[34].veinsmobility 	minSpeed 	0
scalar RSUExampleScenario.node[34].veinsmobility 	maxSpeed 	13.999974579283
scalar RSUExampleScenario.node[34].veinsmobility 	totalDistance 	1966.4275038654
scalar RSUExampleScenario.node[34].veinsmobility 	totalCO2Emission 	619.41147942372
scalar RSUExampleScenario.node[35].appl 	meanClusterNodes 	10
scalar RSUExampleScenario.node[35].appl 	meanClusterHeadUtility 	17.841228669994
scalar RSUExampleScenario.node[35].appl 	NumberofCH 	0.054054054054054
scalar RSUExampleScenario.node[35].appl 	NumberofON 	0.21621621621622
scalar RSUExampleScenario.node[35].appl 	NumberofFN 	0.72972972972973
scalar RSUExampleScenario.node[35].veinsmobility 	startTime 	84.4
scalar RSUExampleScenario.node[35].veinsmobility 	totalTime 	365.6
scalar RSUExampleScenario.node[35].veinsmobility 	stopTime 	450
scalar RSUExampleScenario.node[35].veinsmobility 	minSpeed 	0
scalar RSUExampleScenario.node[35].veinsmobility 	maxSpeed 	13.999755206956
scalar RSUExampleScenario.node[35].veinsmobility 	totalDistance 	1930.1968564157
scalar RSUExampleScenario.node[35].veinsmobility 	totalCO2Emission 	615.20445689481
scalar RSUExampleScenario.node[36].appl 	meanClusterNodes 	0
scalar RSUExampleScenario.node[36].appl 	meanClusterHeadUtility 	0
scalar RSUExampleScenario.node[36].appl 	NumberofCH 	0
scalar RSUExampleScenario.node[36].appl 	NumberofON 	0.27027027027027
scalar RSUExampleScenario.node[36].appl 	NumberofFN 	0.72972972972973
scalar RSUExampleScenario.node[36].veinsmobility 	startTime 	86.8
scalar RSUExampleScenario.node[36].veinsmobility 	totalTime 	363.2
scalar RSUExampleScenario.node[36].veinsmobility 	stopTime 	450
scalar RSUExampleScenario.node[36].veinsmobility 	minSpeed 	0
scalar RSUExampleScenario.node[36].veinsmobility 	maxSpeed 	13.99998907683
scalar RSUExampleScenario.node[36].veinsmobility 	totalDistance 	1896.6475526446
scalar RSUExampleScenario.node[36].veinsmobility 	totalCO2Emission 	611.52755772152
scalar RSUExampleScenario.node[37].appl 	meanClusterNodes 	0
scalar RSUExampleScenario.node[37].appl 	meanClusterHeadUtility 	0
scalar RSUExampleScenario.node[37].appl 	NumberofCH 	0
scalar RSUExampleScenario.node[37].appl 	NumberofON 	0.21621621621622
scalar RSUExampleScenario.node[37].appl 	NumberofFN 	0.78378378378378
scalar RSUExampleScenario.node[37].veinsmobility 	startTime 	89.2
scalar RSUExampleScenario.node[37].veinsmobility 	totalTime 	360.8
scalar RSUExampleScenario.node[37].veinsmobility 	stopTime 	450
scalar RSUExampleScenario.node[37].veinsmobility 	minSpeed 	0
scalar RSUExampleScenario.node[37].veinsmobility 	maxSpeed 	13.999741500099
scalar RSUExampleScenario.node[37].veinsmobility 	totalDistance 	1863.9825629628
scalar RSUExampleScenario.node[37].veinsmobility 	totalCO2Emission 	605.94407084033
scalar RSUExampleScenario.node[38].appl 	meanClusterNodes 	7.5
scalar RSUExampleScenario.node[38].appl 	meanClusterHeadUtility 	15.955345426863
scalar RSUExampleScenario.node[38].appl 	NumberofCH 	0.054054054054054
scalar RSUExampleScenario.node[38].appl 	NumberofON 	0.37837837837838
scalar RSUExampleScenario.node[38].appl 	NumberofFN 	0.56756756756757
scalar RSUExampleScenario.node[38].veinsmobility 	startTime 	91.6
scalar RSUExampleScenario.node[38].veinsmobility 	totalTime 	358.4
scalar RSUExampleScenario.node[38].veinsmobility 	stopTime 	450
scalar RSUExampleScenario.node[38].veinsmobility 	minSpeed 	0
scalar RSUExampleScenario.node[38].veinsmobility 	maxSpeed 	13.999126320886
scalar RSUExampleScenario.node[38].veinsmobility 	totalDistance 	1830.941027776
scalar RSUExampleScenario.node[38].veinsmobility 	totalCO2Emission 	596.40792783754
scalar RSUExampleScenario.node[39].appl 	meanClusterNodes 	11.5
scalar RSUExampleScenario.node[39].appl 	meanClusterHeadUtility 	16.457586277716
scalar RSUExampleScenario.node[39].appl 	NumberofCH 	0.054054054054054
scalar RSUExampleScenario.node[39].appl 	NumberofON 	0.27027027027027
scalar RSUExampleScenario.node[39].appl 	NumberofFN 	0.67567567567568
scalar RSUExampleScenario.node[39].veinsmobility 	startTime 	94
scalar RSUExampleScenario.node[39].veinsmobility 	totalTime 	356
scalar RSUExampleScenario.node[39].veinsmobility 	stopTime 	450
scalar RSUExampleScenario.node[39].veinsmobility 	minSpeed 	0
scalar RSUExampleScenario.node[39].veinsmobility 	maxSpeed 	13.99975398758
scalar RSUExampleScenario.node[39].veinsmobility 	totalDistance 	1793.9114861718
scalar RSUExampleScenario.node[39].veinsmobility 	totalCO2Emission 	590.76505203589
scalar RSUExampleScenario.node[4].appl 	meanClusterNodes 	0
scalar RSUExampleScenario.node[4].appl 	meanClusterHeadUtility 	0
scalar RSUExampleScenario.node[4].appl 	NumberofCH 	0
scalar RSUExampleScenario.node[4].appl 	NumberofON 	0.32432432432432
scalar RSUExampleScenario.node[4].appl 	NumberofFN 	0.67567567567568
scalar RSUExampleScenario.node[4].veinsmobility 	startTime 	9.7
scalar RSUExampleScenario.node[4].veinsmobility 	totalTime 	440.3
scalar RSUExampleScenario.node[4].veinsmobility 	stopTime 	450
scalar RSUExampleScenario.node[4].veinsmobility 	minSpeed 	0
scalar RSUExampleScenario.node[4].veinsmobility 	maxSpeed 	13.999933978838
scalar RSUExampleScenario.node[4].veinsmobility 	totalDistance 	2947.476240728
scalar RSUExampleScenario.node[4].veinsmobility 	totalCO2Emission 	797.97095902954
scalar RSUExampleScenario.node[40].appl 	meanClusterNodes 	0
scalar RSUExampleScenario.node[40].appl 	meanClusterHeadUtility 	0
scalar RSUExampleScenario.node[40].appl 	NumberofCH 	0
scalar RSUExampleScenario.node[40].appl 	NumberofON 	0.40540540540541
scalar RSUExampleScenario.node[40].appl 	NumberofFN 	0.59459459459459
scalar RSUExampleScenario.node[40].veinsmobility 	startTime 	96.5
scalar RSUExampleScenario.node[40].veinsmobility 	totalTime 	353.5
scalar RSUExampleScenario.node[40].veinsmobility 	stopTime 	450
scalar RSUExampleScenario.node[40].veinsmobility 	minSpeed 	0
scalar RSUExampleScenario.node[40].veinsmobility 	maxSpeed 	13.999840308116
scalar RSUExampleScenario.node[40].veinsmobility 	totalDistance 	1760.7080322848
scalar RSUExampleScenario.node[40].veinsmobility 	totalCO2Emission 	586.05353500846
scalar RSUExampleScenario.node[41].appl 	meanClusterNodes 	10
scalar RSUExampleScenario.node[41].appl 	meanClusterHeadUtility 	17.15570048406
scalar RSUExampleScenario.node[41].appl 	NumberofCH 	0.054054054054054
scalar RSUExampleScenario.node[41].appl 	NumberofON 	0.27027027027027
scalar RSUExampleScenario.node[41].appl 	NumberofFN 	0.67567567567568
scalar RSUExampleScenario.node[41].veinsmobility 	startTime 	98.9
scalar RSUExampleScenario.node[41].veinsmobility 	totalTime 	351.1
scalar RSUExampleScenario.node[41].veinsmobility 	stopTime 	450
scalar RSUExampleScenario.node[41].veinsmobility 	minSpeed 	0
scalar RSUExampleScenario.node[41].veinsmobility 	maxSpeed 	13.999812178898
scalar RSUExampleScenario.node[41].veinsmobility 	totalDistance 	1729.2397864683
scalar RSUExampleScenario.node[41].veinsmobility 	totalCO2Emission 	580.67709475388
scalar RSUExampleScenario.node[42].appl 	meanClusterNodes 	3.5
scalar RSUExampleScenario.node[42].appl 	meanClusterHeadUtility 	17.787512063453
scalar RSUExampleScenario.node[42].appl 	NumberofCH 	0.054054054054054
scalar RSUExampleScenario.node[42].appl 	NumberofON 	0.62162162162162
scalar RSUExampleScenario.node[42].appl 	NumberofFN 	0.32432432432432
scalar RSUExampleScenario.node[42].veinsmobility 	startTime 	101.3
scalar RSUExampleScenario.node[42].veinsmobility 	totalTime 	348.7
scalar RSUExampleScenario.node[42].veinsmobility 	stopTime 	450
scalar RSUExampleScenario.node[42].veinsmobility 	minSpeed 	0
scalar RSUExampleScenario.node[42].veinsmobility 	maxSpeed 	13.99992236241
scalar RSUExampleScenario.node[42].veinsmobility 	totalDistance 	1696.3518187535
scalar RSUExampleScenario.node[42].veinsmobility 	totalCO2Emission 	577.11360792451
scalar RSUExampleScenario.node[43].appl 	meanClusterNodes 	0
scalar RSUExampleScenario.node[43].appl 	meanClusterHeadUtility 	0
scalar RSUExampleScenario.node[43].appl 	NumberofCH 	0
scalar RSUExampleScenario.node[43].appl 	NumberofON 	0.56756756756757
scalar RSUExampleScenario.node[43].appl 	NumberofFN 	0.43243243243243
scalar RSUExampleScenario.node[43].veinsmobility 	startTime 	103.7
scalar RSUExampleScenario.node[43].veinsmobility 	totalTime 	346.3
scalar RSUExampleScenario.node[43].veinsmobility 	stopTime 	450
scalar RSUExampleScenario.node[43].veinsmobility 	minSpeed 	0
scalar RSUExampleScenario.node[43].veinsmobility 	maxSpeed 	13.99994889817
scalar RSUExampleScenario.node[43].veinsmobility 	totalDistance 	1662.341009384
scalar RSUExampleScenario.node[43].veinsmobility 	totalCO2Emission 	566.26433342957
scalar RSUExampleScenario.node[44].appl 	meanClusterNodes 	3
scalar RSUExampleScenario.node[44].appl 	meanClusterHeadUtility 	33.266901828984
scalar RSUExampleScenario.node[44].appl 	NumberofCH 	0.027027027027027
scalar RSUExampleScenario.node[44].appl 	NumberofON 	0.40540540540541
scalar RSUExampleScenario.node[44].appl 	NumberofFN 	0.56756756756757
scalar RSUExampleScenario.node[44].veinsmobility 	startTime 	106.1
scalar RSUExampleScenario.node[44].veinsmobility 	totalTime 	343.9
scalar RSUExampleScenario.node[44].veinsmobility 	stopTime 	450
scalar RSUExampleScenario.node[44].veinsmobility 	minSpeed 	0
scalar RSUExampleScenario.node[44].veinsmobility 	maxSpeed 	13.999988348188
scalar RSUExampleScenario.node[44].veinsmobility 	totalDistance 	1626.8364280438
scalar RSUExampleScenario.node[44].veinsmobility 	totalCO2Emission 	565.23115227597
scalar RSUExampleScenario.node[45].appl 	meanClusterNodes 	10
scalar RSUExampleScenario.node[45].appl 	meanClusterHeadUtility 	16.82372850049
scalar RSUExampleScenario.node[45].appl 	NumberofCH 	0.054054054054054
scalar RSUExampleScenario.node[45].appl 	NumberofON 	0.32432432432432
scalar RSUExampleScenario.node[45].appl 	NumberofFN 	0.62162162162162
scalar RSUExampleScenario.node[45].veinsmobility 	startTime 	108.5
scalar RSUExampleScenario.node[45].veinsmobility 	totalTime 	341.5
scalar RSUExampleScenario.node[45].veinsmobility 	stopTime 	450
scalar RSUExampleScenario.node[45].veinsmobility 	minSpeed 	0
scalar RSUExampleScenario.node[45].veinsmobility 	maxSpeed 	13.999776801527
scalar RSUExampleScenario.node[45].veinsmobility 	totalDistance 	1594.6646350098
scalar RSUExampleScenario.node[45].veinsmobility 	totalCO2Emission 	557.2814850346
scalar RSUExampleScenario.node[46].appl 	meanClusterNodes 	2
scalar RSUExampleScenario.node[46].appl 	meanClusterHeadUtility 	15.340950770335
scalar RSUExampleScenario.node[46].appl 	NumberofCH 	0.054054054054054
scalar RSUExampleScenario.node[46].appl 	NumberofON 	0.54054054054054
scalar RSUExampleScenario.node[46].appl 	NumberofFN 	0.40540540540541
scalar RSUExampleScenario.node[46].veinsmobility 	startTime 	110.9
scalar RSUExampleScenario.node[46].veinsmobility 	totalTime 	339.1
scalar RSUExampleScenario.node[46].veinsmobility 	stopTime 	450
scalar RSUExampleScenario.node[46].veinsmobility 	minSpeed 	0
scalar RSUExampleScenario.node[46].veinsmobility 	maxSpeed 	13.999922240491
scalar RSUExampleScenario.node[46].veinsmobility 	totalDistance 	1557.9885565247
scalar RSUExampleScenario.node[46].veinsmobility 	totalCO2Emission 	554.66348259167
scalar RSUExampleScenario.node[47].appl 	meanClusterNodes 	9
scalar RSUExampleScenario.node[47].appl 	meanClusterHeadUtility 	16.803855348069
scalar RSUExampleScenario.node[47].appl 	NumberofCH 	0.054054054054054
scalar RSUExampleScenario.node[47].appl 	NumberofON 	0.32432432432432
scalar RSUExampleScenario.node[47].appl 	NumberofFN 	0.62162162162162
scalar RSUExampleScenario.node[47].veinsmobility 	startTime 	113.3
scalar RSUExampleScenario.node[47].veinsmobility 	totalTime 	336.7
scalar RSUExampleScenario.node[47].veinsmobility 	stopTime 	450
scalar RSUExampleScenario.node[47].veinsmobility 	minSpeed 	0
scalar RSUExampleScenario.node[47].veinsmobility 	maxSpeed 	13.999981413491
scalar RSUExampleScenario.node[47].veinsmobility 	totalDistance 	1528.339367252
scalar RSUExampleScenario.node[47].veinsmobility 	totalCO2Emission 	545.51182890269
scalar RSUExampleScenario.node[48].appl 	meanClusterNodes 	9.5
scalar RSUExampleScenario.node[48].appl 	meanClusterHeadUtility 	17.711262538065
scalar RSUExampleScenario.node[48].appl 	NumberofCH 	0.054054054054054
scalar RSUExampleScenario.node[48].appl 	NumberofON 	0.27027027027027
scalar RSUExampleScenario.node[48].appl 	NumberofFN 	0.67567567567568
scalar RSUExampleScenario.node[48].veinsmobility 	startTime 	115.7
scalar RSUExampleScenario.node[48].veinsmobility 	totalTime 	334.3
scalar RSUExampleScenario.node[48].veinsmobility 	stopTime 	450
scalar RSUExampleScenario.node[48].veinsmobility 	minSpeed 	0
scalar RSUExampleScenario.node[48].veinsmobility 	maxSpeed 	13.999971840302
scalar RSUExampleScenario.node[48].veinsmobility 	totalDistance 	1493.2321454471
scalar RSUExampleScenario.node[48].veinsmobility 	totalCO2Emission 	540.32056279257
scalar RSUExampleScenario.node[49].appl 	meanClusterNodes 	6
scalar RSUExampleScenario.node[49].appl 	meanClusterHeadUtility 	16.34403969522
scalar RSUExampleScenario.node[49].appl 	NumberofCH 	0.054054054054054
scalar RSUExampleScenario.node[49].appl 	NumberofON 	0.37837837837838
scalar RSUExampleScenario.node[49].appl 	NumberofFN 	0.56756756756757
scalar RSUExampleScenario.node[49].veinsmobility 	startTime 	118.1
scalar RSUExampleScenario.node[49].veinsmobility 	totalTime 	331.9
scalar RSUExampleScenario.node[49].veinsmobility 	stopTime 	450
scalar RSUExampleScenario.node[49].veinsmobility 	minSpeed 	0
scalar RSUExampleScenario.node[49].veinsmobility 	maxSpeed 	13.999680318758
scalar RSUExampleScenario.node[49].veinsmobility 	totalDistance 	1459.3015891111
scalar RSUExampleScenario.node[49].veinsmobility 	totalCO2Emission 	534.58861677531
scalar RSUExampleScenario.node[5].appl 	meanClusterNodes 	0
scalar RSUExampleScenario.node[5].appl 	meanClusterHeadUtility 	0
scalar RSUExampleScenario.node[5].appl 	NumberofCH 	0
scalar RSUExampleScenario.node[5].appl 	NumberofON 	0.37837837837838
scalar RSUExampleScenario.node[5].appl 	NumberofFN 	0.62162162162162
scalar RSUExampleScenario.node[5].veinsmobility 	startTime 	12.1
scalar RSUExampleScenario.node[5].veinsmobility 	totalTime 	437.9
scalar RSUExampleScenario.node[5].veinsmobility 	stopTime 	450
scalar RSUExampleScenario.node[5].veinsmobility 	minSpeed 	0
scalar RSUExampleScenario.node[5].veinsmobility 	maxSpeed 	13.999893862712
scalar RSUExampleScenario.node[5].veinsmobility 	totalDistance 	2918.0869032696
scalar RSUExampleScenario.node[5].veinsmobility 	totalCO2Emission 	781.58808887032
scalar RSUExampleScenario.node[50].appl 	meanClusterNodes 	5.5
scalar RSUExampleScenario.node[50].appl 	meanClusterHeadUtility 	15.815593254446
scalar RSUExampleScenario.node[50].appl 	NumberofCH 	0.054054054054054
scalar RSUExampleScenario.node[50].appl 	NumberofON 	0.54054054054054
scalar RSUExampleScenario.node[50].appl 	NumberofFN 	0.40540540540541
scalar RSUExampleScenario.node[50].veinsmobility 	startTime 	120.6
scalar RSUExampleScenario.node[50].veinsmobility 	totalTime 	329.4
scalar RSUExampleScenario.node[50].veinsmobility 	stopTime 	450
scalar RSUExampleScenario.node[50].veinsmobility 	minSpeed 	0
scalar RSUExampleScenario.node[50].veinsmobility 	maxSpeed 	13.999952991521
scalar RSUExampleScenario.node[50].veinsmobility 	totalDistance 	1426.6762060883
scalar RSUExampleScenario.node[50].veinsmobility 	totalCO2Emission 	527.19044677908
scalar RSUExampleScenario.node[51].appl 	meanClusterNodes 	11
scalar RSUExampleScenario.node[51].appl 	meanClusterHeadUtility 	17.698074077177
scalar RSUExampleScenario.node[51].appl 	NumberofCH 	0.054054054054054
scalar RSUExampleScenario.node[51].appl 	NumberofON 	0.32432432432432
scalar RSUExampleScenario.node[51].appl 	NumberofFN 	0.62162162162162
scalar RSUExampleScenario.node[51].veinsmobility 	startTime 	123
scalar RSUExampleScenario.node[51].veinsmobility 	totalTime 	327
scalar RSUExampleScenario.node[51].veinsmobility 	stopTime 	450
scalar RSUExampleScenario.node[51].veinsmobility 	minSpeed 	0
scalar RSUExampleScenario.node[51].veinsmobility 	maxSpeed 	13.999960977214
scalar RSUExampleScenario.node[51].veinsmobility 	totalDistance 	1393.1669548185
scalar RSUExampleScenario.node[51].veinsmobility 	totalCO2Emission 	523.9742522004
scalar RSUExampleScenario.node[52].appl 	meanClusterNodes 	0
scalar RSUExampleScenario.node[52].appl 	meanClusterHeadUtility 	0
scalar RSUExampleScenario.node[52].appl 	NumberofCH 	0
scalar RSUExampleScenario.node[52].appl 	NumberofON 	0.62162162162162
scalar RSUExampleScenario.node[52].appl 	NumberofFN 	0.37837837837838
scalar RSUExampleScenario.node[52].veinsmobility 	startTime 	125.4
scalar RSUExampleScenario.node[52].veinsmobility 	totalTime 	324.6
scalar RSUExampleScenario.node[52].veinsmobility 	stopTime 	450
scalar RSUExampleScenario.node[52].veinsmobility 	minSpeed 	0
scalar RSUExampleScenario.node[52].veinsmobility 	maxSpeed 	13.99960747032
scalar RSUExampleScenario.node[52].veinsmobility 	totalDistance 	1359.8214038991
scalar RSUExampleScenario.node[52].veinsmobility 	totalCO2Emission 	519.44419366551
scalar RSUExampleScenario.node[53].appl 	meanClusterNodes 	0
scalar RSUExampleScenario.node[53].appl 	meanClusterHeadUtility 	0
scalar RSUExampleScenario.node[53].appl 	NumberofCH 	0
scalar RSUExampleScenario.node[53].appl 	NumberofON 	0.59459459459459
scalar RSUExampleScenario.node[53].appl 	NumberofFN 	0.40540540540541
scalar RSUExampleScenario.node[53].veinsmobility 	startTime 	127.8
scalar RSUExampleScenario.node[53].veinsmobility 	totalTime 	322.2
scalar RSUExampleScenario.node[53].veinsmobility 	stopTime 	450
scalar RSUExampleScenario.node[53].veinsmobility 	minSpeed 	0
scalar RSUExampleScenario.node[53].veinsmobility 	maxSpeed 	13.999972218622
scalar RSUExampleScenario.node[53].veinsmobility 	totalDistance 	1326.768946191
scalar RSUExampleScenario.node[53].veinsmobility 	totalCO2Emission 	515.97734199315
scalar RSUExampleScenario.node[54].appl 	meanClusterNodes 	11.5
scalar RSUExampleScenario.node[54].appl 	meanClusterHeadUtility 	17.39588593828
scalar RSUExampleScenario.node[54].appl 	NumberofCH 	0.054054054054054
scalar RSUExampleScenario.node[54].appl 	NumberofON 	0.35135135135135
scalar RSUExampleScenario.node[54].appl 	NumberofFN 	0.59459459459459
scalar RSUExampleScenario.node[54].veinsmobility 	startTime 	130.2
scalar RSUExampleScenario.node[54].veinsmobility 	totalTime 	319.8
scalar RSUExampleScenario.node[54].veinsmobility 	stopTime 	450
scalar RSUExampleScenario.node[54].veinsmobility 	minSpeed 	0
scalar RSUExampleScenario.node[54].veinsmobility 	maxSpeed 	13.999941573106
scalar RSUExampleScenario.node[54].veinsmobility 	totalDistance 	1291.5570015965
scalar RSUExampleScenario.node[54].veinsmobility 	totalCO2Emission 	509.21563104057
scalar RSUExampleScenario.node[55].appl 	meanClusterNodes 	6
scalar RSUExampleScenario.node[55].appl 	meanClusterHeadUtility 	17.498422833403
scalar RSUExampleScenario.node[55].appl 	NumberofCH 	0.054054054054054
scalar RSUExampleScenario.node[55].appl 	NumberofON 	0.45945945945946
scalar RSUExampleScenario.node[55].appl 	NumberofFN 	0.48648648648649
scalar RSUExampleScenario.node[55].veinsmobility 	startTime 	132.6
scalar RSUExampleScenario.node[55].veinsmobility 	totalTime 	317.4
scalar RSUExampleScenario.node[55].veinsmobility 	stopTime 	450
scalar RSUExampleScenario.node[55].veinsmobility 	minSpeed 	0
scalar RSUExampleScenario.node[55].veinsmobility 	maxSpeed 	13.999896224402
scalar RSUExampleScenario.node[55].veinsmobility 	totalDistance 	1257.4961008531
scalar RSUExampleScenario.node[55].veinsmobility 	totalCO2Emission 	501.18731423752
scalar RSUExampleScenario.node[56].appl 	meanClusterNodes 	5
scalar RSUExampleScenario.node[56].appl 	meanClusterHeadUtility 	16.847304960717
scalar RSUExampleScenario.node[56].appl 	NumberofCH 	0.054054054054054
scalar RSUExampleScenario.node[56].appl 	NumberofON 	0.51351351351351
scalar RSUExampleScenario.node[56].appl 	NumberofFN 	0.43243243243243
scalar RSUExampleScenario.node[56].veinsmobility 	startTime 	135
scalar RSUExampleScenario.node[56].veinsmobility 	totalTime 	315
scalar RSUExampleScenario.node[56].veinsmobility 	stopTime 	450
scalar RSUExampleScenario.node[56].veinsmobility 	minSpeed 	0
scalar RSUExampleScenario.node[56].veinsmobility 	maxSpeed 	13.999779628133
scalar RSUExampleScenario.node[56].veinsmobility 	totalDistance 	1224.6363643634
scalar RSUExampleScenario.node[56].veinsmobility 	totalCO2Emission 	497.54047312651
scalar RSUExampleScenario.node[57].appl 	meanClusterNodes 	9
scalar RSUExampleScenario.node[57].appl 	meanClusterHeadUtility 	17.339924641051
scalar RSUExampleScenario.node[57].appl 	NumberofCH 	0.054054054054054
scalar RSUExampleScenario.node[57].appl 	NumberofON 	0.37837837837838
scalar RSUExampleScenario.node[57].appl 	NumberofFN 	0.56756756756757
scalar RSUExampleScenario.node[57].veinsmobility 	startTime 	137.4
scalar RSUExampleScenario.node[57].veinsmobility 	totalTime 	312.6
scalar RSUExampleScenario.node[57].veinsmobility 	stopTime 	450
scalar RSUExampleScenario.node[57].veinsmobility 	minSpeed 	0
scalar RSUExampleScenario.node[57].veinsmobility 	maxSpeed 	13.999622358142
scalar RSUExampleScenario.node[57].veinsmobility 	totalDistance 	1191.5432028633
scalar RSUExampleScenario.node[57].veinsmobility 	totalCO2Emission 	490.25839957743
scalar RSUExampleScenario.node[58].appl 	meanClusterNodes 	0
scalar RSUExampleScenario.node[58].appl 	meanClusterHeadUtility 	0
scalar RSUExampleScenario.node[58].appl 	NumberofCH 	0
scalar RSUExampleScenario.node[58].appl 	NumberofON 	0.27027027027027
scalar RSUExampleScenario.node[58].appl 	NumberofFN 	0.72972972972973
scalar RSUExampleScenario.node[58].veinsmobility 	startTime 	139.8
scalar RSUExampleScenario.node[58].veinsmobility 	totalTime 	310.2
scalar RSUExampleScenario.node[58].veinsmobility 	stopTime 	450
scalar RSUExampleScenario.node[58].veinsmobility 	minSpeed 	0
scalar RSUExampleScenario.node[58].veinsmobility 	maxSpeed 	13.999985134697
scalar RSUExampleScenario.node[58].veinsmobility 	totalDistance 	1158.4400037165
scalar RSUExampleScenario.node[58].veinsmobility 	totalCO2Emission 	484.37202144664
scalar RSUExampleScenario.node[59].appl 	meanClusterNodes 	12
scalar RSUExampleScenario.node[59].appl 	meanClusterHeadUtility 	17.103888068777
scalar RSUExampleScenario.node[59].appl 	NumberofCH 	0.054054054054054
scalar RSUExampleScenario.node[59].appl 	NumberofON 	0.40540540540541
scalar RSUExampleScenario.node[59].appl 	NumberofFN 	0.54054054054054
scalar RSUExampleScenario.node[59].veinsmobility 	startTime 	142.2
scalar RSUExampleScenario.node[59].veinsmobility 	totalTime 	307.8
scalar RSUExampleScenario.node[59].veinsmobility 	stopTime 	450
scalar RSUExampleScenario.node[59].veinsmobility 	minSpeed 	0
scalar RSUExampleScenario.node[59].veinsmobility 	maxSpeed 	13.999879297789
scalar RSUExampleScenario.node[59].veinsmobility 	totalDistance 	1125.1467780054
scalar RSUExampleScenario.node[59].veinsmobility 	totalCO2Emission 	479.4713012718
scalar RSUExampleScenario.node[6].appl 	meanClusterNodes 	7.5
scalar RSUExampleScenario.node[6].appl 	meanClusterHeadUtility 	18.846566672747
scalar RSUExampleScenario.node[6].appl 	NumberofCH 	0.054054054054054
scalar RSUExampleScenario.node[6].appl 	NumberofON 	0.16216216216216
scalar RSUExampleScenario.node[6].appl 	NumberofFN 	0.78378378378378
scalar RSUExampleScenario.node[6].veinsmobility 	startTime 	14.5
scalar RSUExampleScenario.node[6].veinsmobility 	totalTime 	435.5
scalar RSUExampleScenario.node[6].veinsmobility 	stopTime 	450
scalar RSUExampleScenario.node[6].veinsmobility 	minSpeed 	0
scalar RSUExampleScenario.node[6].veinsmobility 	maxSpeed 	13.999948638773
scalar RSUExampleScenario.node[6].veinsmobility 	totalDistance 	2901.5490348854
scalar RSUExampleScenario.node[6].veinsmobility 	totalCO2Emission 	779.39614866041
scalar RSUExampleScenario.node[60].appl 	meanClusterNodes 	5
scalar RSUExampleScenario.node[60].appl 	meanClusterHeadUtility 	15.33928738451
scalar RSUExampleScenario.node[60].appl 	NumberofCH 	0.054054054054054
scalar RSUExampleScenario.node[60].appl 	NumberofON 	0.62162162162162
scalar RSUExampleScenario.node[60].appl 	NumberofFN 	0.32432432432432
scalar RSUExampleScenario.node[60].veinsmobility 	startTime 	144.7
scalar RSUExampleScenario.node[60].veinsmobility 	totalTime 	305.3
scalar RSUExampleScenario.node[60].veinsmobility 	stopTime 	450
scalar RSUExampleScenario.node[60].veinsmobility 	minSpeed 	0
scalar RSUExampleScenario.node[60].veinsmobility 	maxSpeed 	13.999823846086
scalar RSUExampleScenario.node[60].veinsmobility 	totalDistance 	1091.143072178
scalar RSUExampleScenario.node[60].veinsmobility 	totalCO2Emission 	476.74259343212
scalar RSUExampleScenario.node[61].appl 	meanClusterNodes 	0
scalar RSUExampleScenario.node[61].appl 	meanClusterHeadUtility 	0
scalar RSUExampleScenario.node[61].appl 	NumberofCH 	0.027027027027027
scalar RSUExampleScenario.node[61].appl 	NumberofON 	0.51351351351351
scalar RSUExampleScenario.node[61].appl 	NumberofFN 	0.45945945945946
scalar RSUExampleScenario.node[61].veinsmobility 	startTime 	147.1
scalar RSUExampleScenario.node[61].veinsmobility 	totalTime 	302.9
scalar RSUExampleScenario.node[61].veinsmobility 	stopTime 	450
scalar RSUExampleScenario.node[61].veinsmobility 	minSpeed 	0
scalar RSUExampleScenario.node[61].veinsmobility 	maxSpeed 	13.99963629337
scalar RSUExampleScenario.node[61].veinsmobility 	totalDistance 	1058.4061661785
scalar RSUExampleScenario.node[61].veinsmobility 	totalCO2Emission 	468.77598956074
scalar RSUExampleScenario.node[62].appl 	meanClusterNodes 	0
scalar RSUExampleScenario.node[62].appl 	meanClusterHeadUtility 	0
scalar RSUExampleScenario.node[62].appl 	NumberofCH 	0
scalar RSUExampleScenario.node[62].appl 	NumberofON 	0.56756756756757
scalar RSUExampleScenario.node[62].appl 	NumberofFN 	0.43243243243243
scalar RSUExampleScenario.node[62].veinsmobility 	startTime 	149.5
scalar RSUExampleScenario.node[62].veinsmobility 	totalTime 	300.5
scalar RSUExampleScenario.node[62].veinsmobility 	stopTime 	450
scalar RSUExampleScenario.node[62].veinsmobility 	minSpeed 	0
scalar RSUExampleScenario.node[62].veinsmobility 	maxSpeed 	13.999915806577
scalar RSUExampleScenario.node[62].veinsmobility 	totalDistance 	1023.1848552069
scalar RSUExampleScenario.node[62].veinsmobility 	totalCO2Emission 	462.67073703575
scalar RSUExampleScenario.node[63].appl 	meanClusterNodes 	0
scalar RSUExampleScenario.node[63].appl 	meanClusterHeadUtility 	0
scalar RSUExampleScenario.node[63].appl 	NumberofCH 	0
scalar RSUExampleScenario.node[63].appl 	NumberofON 	0.27027027027027
scalar RSUExampleScenario.node[63].appl 	NumberofFN 	0.72972972972973
scalar RSUExampleScenario.node[63].veinsmobility 	startTime 	151.9
scalar RSUExampleScenario.node[63].veinsmobility 	totalTime 	298.1
scalar RSUExampleScenario.node[63].veinsmobility 	stopTime 	450
scalar RSUExampleScenario.node[63].veinsmobility 	minSpeed 	0
scalar RSUExampleScenario.node[63].veinsmobility 	maxSpeed 	13.999902802058
scalar RSUExampleScenario.node[63].veinsmobility 	totalDistance 	985.66160325207
scalar RSUExampleScenario.node[63].veinsmobility 	totalCO2Emission 	449.96054842679
scalar RSUExampleScenario.node[64].appl 	meanClusterNodes 	4
scalar RSUExampleScenario.node[64].appl 	meanClusterHeadUtility 	18.874646348172
scalar RSUExampleScenario.node[64].appl 	NumberofCH 	0.054054054054054
scalar RSUExampleScenario.node[64].appl 	NumberofON 	0.45945945945946
scalar RSUExampleScenario.node[64].appl 	NumberofFN 	0.48648648648649
scalar RSUExampleScenario.node[64].veinsmobility 	startTime 	154.3
scalar RSUExampleScenario.node[64].veinsmobility 	totalTime 	295.7
scalar RSUExampleScenario.node[64].veinsmobility 	stopTime 	450
scalar RSUExampleScenario.node[64].veinsmobility 	minSpeed 	0
scalar RSUExampleScenario.node[64].veinsmobility 	maxSpeed 	13.999446835769
scalar RSUExampleScenario.node[64].veinsmobility 	totalDistance 	953.80892073178
scalar RSUExampleScenario.node[64].veinsmobility 	totalCO2Emission 	433.89166014028
scalar RSUExampleScenario.node[65].appl 	meanClusterNodes 	7
scalar RSUExampleScenario.node[65].appl 	meanClusterHeadUtility 	17.320051984366
scalar RSUExampleScenario.node[65].appl 	NumberofCH 	0.054054054054054
scalar RSUExampleScenario.node[65].appl 	NumberofON 	0.35135135135135
scalar RSUExampleScenario.node[65].appl 	NumberofFN 	0.59459459459459
scalar RSUExampleScenario.node[65].veinsmobility 	startTime 	156.7
scalar RSUExampleScenario.node[65].veinsmobility 	totalTime 	293.3
scalar RSUExampleScenario.node[65].veinsmobility 	stopTime 	450
scalar RSUExampleScenario.node[65].veinsmobility 	minSpeed 	0
scalar RSUExampleScenario.node[65].veinsmobility 	maxSpeed 	13.999565772661
scalar RSUExampleScenario.node[65].veinsmobility 	totalDistance 	940.36534124521
scalar RSUExampleScenario.node[65].veinsmobility 	totalCO2Emission 	429.96400918319
scalar RSUExampleScenario.node[66].appl 	meanClusterNodes 	0
scalar RSUExampleScenario.node[66].appl 	meanClusterHeadUtility 	0
scalar RSUExampleScenario.node[66].appl 	NumberofCH 	0.054054054054054
scalar RSUExampleScenario.node[66].appl 	NumberofON 	0
scalar RSUExampleScenario.node[66].appl 	NumberofFN 	0.94594594594595
scalar RSUExampleScenario.node[66].veinsmobility 	startTime 	159.1
scalar RSUExampleScenario.node[66].veinsmobility 	totalTime 	290.9
scalar RSUExampleScenario.node[66].veinsmobility 	stopTime 	450
scalar RSUExampleScenario.node[66].veinsmobility 	minSpeed 	0
scalar RSUExampleScenario.node[66].veinsmobility 	maxSpeed 	13.99987912066
scalar RSUExampleScenario.node[66].veinsmobility 	totalDistance 	928.12367442681
scalar RSUExampleScenario.node[66].veinsmobility 	totalCO2Emission 	425.121944633
scalar RSUExampleScenario.node[67].appl 	meanClusterNodes 	0
scalar RSUExampleScenario.node[67].appl 	meanClusterHeadUtility 	0
scalar RSUExampleScenario.node[67].appl 	NumberofCH 	0
scalar RSUExampleScenario.node[67].appl 	NumberofON 	0.43243243243243
scalar RSUExampleScenario.node[67].appl 	NumberofFN 	0.56756756756757
scalar RSUExampleScenario.node[67].veinsmobility 	startTime 	161.5
scalar RSUExampleScenario.node[67].veinsmobility 	totalTime 	288.5
scalar RSUExampleScenario.node[67].veinsmobility 	stopTime 	450
scalar RSUExampleScenario.node[67].veinsmobility 	minSpeed 	0
scalar RSUExampleScenario.node[67].veinsmobility 	maxSpeed 	13.99987075571
scalar RSUExampleScenario.node[67].veinsmobility 	totalDistance 	912.70529588304
scalar RSUExampleScenario.node[67].veinsmobility 	totalCO2Emission 	421.71717491458
scalar RSUExampleScenario.node[68].appl 	meanClusterNodes 	5
scalar RSUExampleScenario.node[68].appl 	meanClusterHeadUtility 	17.034729726893
scalar RSUExampleScenario.node[68].appl 	NumberofCH 	0.054054054054054
scalar RSUExampleScenario.node[68].appl 	NumberofON 	0.54054054054054
scalar RSUExampleScenario.node[68].appl 	NumberofFN 	0.40540540540541
scalar RSUExampleScenario.node[68].veinsmobility 	startTime 	163.9
scalar RSUExampleScenario.node[68].veinsmobility 	totalTime 	286.1
scalar RSUExampleScenario.node[68].veinsmobility 	stopTime 	450
scalar RSUExampleScenario.node[68].veinsmobility 	minSpeed 	0
scalar RSUExampleScenario.node[68].veinsmobility 	maxSpeed 	13.999299122409
scalar RSUExampleScenario.node[68].veinsmobility 	totalDistance 	892.6688282549
scalar RSUExampleScenario.node[68].veinsmobility 	totalCO2Emission 	417.70481480398
scalar RSUExampleScenario.node[69].appl 	meanClusterNodes 	8
scalar RSUExampleScenario.node[69].appl 	meanClusterHeadUtility 	17.035474414884
scalar RSUExampleScenario.node[69].appl 	NumberofCH 	0.054054054054054
scalar RSUExampleScenario.node[69].appl 	NumberofON 	0.35135135135135
scalar RSUExampleScenario.node[69].appl 	NumberofFN 	0.59459459459459
scalar RSUExampleScenario.node[69].veinsmobility 	startTime 	166.3
scalar RSUExampleScenario.node[69].veinsmobility 	totalTime 	283.7
scalar RSUExampleScenario.node[69].veinsmobility 	stopTime 	450
scalar RSUExampleScenario.node[69].veinsmobility 	minSpeed 	0
scalar RSUExampleScenario.node[69].veinsmobility 	maxSpeed 	13.999973589338
scalar RSUExampleScenario.node[69].veinsmobility 	totalDistance 	859.07782704511
scalar RSUExampleScenario.node[69].veinsmobility 	totalCO2Emission 	414.23915053434
scalar RSUExampleScenario.node[7].appl 	meanClusterNodes 	8
scalar RSUExampleScenario.node[7].appl 	meanClusterHeadUtility 	17.867505500744
scalar RSUExampleScenario.node[7].appl 	NumberofCH 	0.054054054054054
scalar RSUExampleScenario.node[7].appl 	NumberofON 	0.10810810810811
scalar RSUExampleScenario.node[7].appl 	NumberofFN 	0.83783783783784
scalar RSUExampleScenario.node[7].veinsmobility 	startTime 	16.9
scalar RSUExampleScenario.node[7].veinsmobility 	totalTime 	433.1
scalar RSUExampleScenario.node[7].veinsmobility 	stopTime 	450
scalar RSUExampleScenario.node[7].veinsmobility 	minSpeed 	0
scalar RSUExampleScenario.node[7].veinsmobility 	maxSpeed 	13.999653249586
scalar RSUExampleScenario.node[7].veinsmobility 	totalDistance 	2889.4496549332
scalar RSUExampleScenario.node[7].veinsmobility 	totalCO2Emission 	778.14998983109
scalar RSUExampleScenario.node[70].appl 	meanClusterNodes 	0
scalar RSUExampleScenario.node[70].appl 	meanClusterHeadUtility 	0
scalar RSUExampleScenario.node[70].appl 	NumberofCH 	0
scalar RSUExampleScenario.node[70].appl 	NumberofON 	0.35135135135135
scalar RSUExampleScenario.node[70].appl 	NumberofFN 	0.64864864864865
scalar RSUExampleScenario.node[70].veinsmobility 	startTime 	168.8
scalar RSUExampleScenario.node[70].veinsmobility 	totalTime 	281.2
scalar RSUExampleScenario.node[70].veinsmobility 	stopTime 	450
scalar RSUExampleScenario.node[70].veinsmobility 	minSpeed 	0
scalar RSUExampleScenario.node[70].veinsmobility 	maxSpeed 	13.999459106259
scalar RSUExampleScenario.node[70].veinsmobility 	totalDistance 	825.66706195406
scalar RSUExampleScenario.node[70].veinsmobility 	totalCO2Emission 	406.55464282788
scalar RSUExampleScenario.node[71].appl 	meanClusterNodes 	6.5
scalar RSUExampleScenario.node[71].appl 	meanClusterHeadUtility 	16.33628383255
scalar RSUExampleScenario.node[71].appl 	NumberofCH 	0.054054054054054
scalar RSUExampleScenario.node[71].appl 	NumberofON 	0.62162162162162
scalar RSUExampleScenario.node[71].appl 	NumberofFN 	0.32432432432432
scalar RSUExampleScenario.node[71].veinsmobility 	startTime 	171.2
scalar RSUExampleScenario.node[71].veinsmobility 	totalTime 	278.8
scalar RSUExampleScenario.node[71].veinsmobility 	stopTime 	450
scalar RSUExampleScenario.node[71].veinsmobility 	minSpeed 	0
scalar RSUExampleScenario.node[71].veinsmobility 	maxSpeed 	13.999973242527
scalar RSUExampleScenario.node[71].veinsmobility 	totalDistance 	794.37730507663
scalar RSUExampleScenario.node[71].veinsmobility 	totalCO2Emission 	403.36343891552
scalar RSUExampleScenario.node[72].appl 	meanClusterNodes 	8
scalar RSUExampleScenario.node[72].appl 	meanClusterHeadUtility 	8.2750112431563
scalar RSUExampleScenario.node[72].appl 	NumberofCH 	0.10810810810811
scalar RSUExampleScenario.node[72].appl 	NumberofON 	0.32432432432432
scalar RSUExampleScenario.node[72].appl 	NumberofFN 	0.56756756756757
scalar RSUExampleScenario.node[72].veinsmobility 	startTime 	173.6
scalar RSUExampleScenario.node[72].veinsmobility 	totalTime 	276.4
scalar RSUExampleScenario.node[72].veinsmobility 	stopTime 	450
scalar RSUExampleScenario.node[72].veinsmobility 	minSpeed 	0
scalar RSUExampleScenario.node[72].veinsmobility 	maxSpeed 	13.999929367753
scalar RSUExampleScenario.node[72].veinsmobility 	totalDistance 	759.16887686224
scalar RSUExampleScenario.node[72].veinsmobility 	totalCO2Emission 	395.53655194736
scalar RSUExampleScenario.node[73].appl 	meanClusterNodes 	5
scalar RSUExampleScenario.node[73].appl 	meanClusterHeadUtility 	16.808726275206
scalar RSUExampleScenario.node[73].appl 	NumberofCH 	0.054054054054054
scalar RSUExampleScenario.node[73].appl 	NumberofON 	0.54054054054054
scalar RSUExampleScenario.node[73].appl 	NumberofFN 	0.40540540540541
scalar RSUExampleScenario.node[73].veinsmobility 	startTime 	176
scalar RSUExampleScenario.node[73].veinsmobility 	totalTime 	274
scalar RSUExampleScenario.node[73].veinsmobility 	stopTime 	450
scalar RSUExampleScenario.node[73].veinsmobility 	minSpeed 	0
scalar RSUExampleScenario.node[73].veinsmobility 	maxSpeed 	13.999917595414
scalar RSUExampleScenario.node[73].veinsmobility 	totalDistance 	727.29502397422
scalar RSUExampleScenario.node[73].veinsmobility 	totalCO2Emission 	388.92598780954
scalar RSUExampleScenario.node[74].appl 	meanClusterNodes 	5.5
scalar RSUExampleScenario.node[74].appl 	meanClusterHeadUtility 	16.939913980907
scalar RSUExampleScenario.node[74].appl 	NumberofCH 	0.054054054054054
scalar RSUExampleScenario.node[74].appl 	NumberofON 	0.48648648648649
scalar RSUExampleScenario.node[74].appl 	NumberofFN 	0.45945945945946
scalar RSUExampleScenario.node[74].veinsmobility 	startTime 	178.4
scalar RSUExampleScenario.node[74].veinsmobility 	totalTime 	271.6
scalar RSUExampleScenario.node[74].veinsmobility 	stopTime 	450
scalar RSUExampleScenario.node[74].veinsmobility 	minSpeed 	0
scalar RSUExampleScenario.node[74].veinsmobility 	maxSpeed 	13.999547552879
scalar RSUExampleScenario.node[74].veinsmobility 	totalDistance 	689.94147228154
scalar RSUExampleScenario.node[74].veinsmobility 	totalCO2Emission 	384.51716706001
scalar RSUExampleScenario.node[75].appl 	meanClusterNodes 	1.5
scalar RSUExampleScenario.node[75].appl 	meanClusterHeadUtility 	15.68632908098
scalar RSUExampleScenario.node[75].appl 	NumberofCH 	0.054054054054054
scalar RSUExampleScenario.node[75].appl 	NumberofON 	0.54054054054054
scalar RSUExampleScenario.node[75].appl 	NumberofFN 	0.40540540540541
scalar RSUExampleScenario.node[75].veinsmobility 	startTime 	180.8
scalar RSUExampleScenario.node[75].veinsmobility 	totalTime 	269.2
scalar RSUExampleScenario.node[75].veinsmobility 	stopTime 	450
scalar RSUExampleScenario.node[75].veinsmobility 	minSpeed 	0
scalar RSUExampleScenario.node[75].veinsmobility 	maxSpeed 	13.999440230781
scalar RSUExampleScenario.node[75].veinsmobility 	totalDistance 	659.26050678587
scalar RSUExampleScenario.node[75].veinsmobility 	totalCO2Emission 	381.49618080214
scalar RSUExampleScenario.node[76].appl 	meanClusterNodes 	6
scalar RSUExampleScenario.node[76].appl 	meanClusterHeadUtility 	33.462248355938
scalar RSUExampleScenario.node[76].appl 	NumberofCH 	0.027027027027027
scalar RSUExampleScenario.node[76].appl 	NumberofON 	0.54054054054054
scalar RSUExampleScenario.node[76].appl 	NumberofFN 	0.43243243243243
scalar RSUExampleScenario.node[76].veinsmobility 	startTime 	183.2
scalar RSUExampleScenario.node[76].veinsmobility 	totalTime 	266.8
scalar RSUExampleScenario.node[76].veinsmobility 	stopTime 	450
scalar RSUExampleScenario.node[76].veinsmobility 	minSpeed 	0
scalar RSUExampleScenario.node[76].veinsmobility 	maxSpeed 	13.999528598886
scalar RSUExampleScenario.node[76].veinsmobility 	totalDistance 	623.76606225678
scalar RSUExampleScenario.node[76].veinsmobility 	totalCO2Emission 	374.62846459997
scalar RSUExampleScenario.node[77].appl 	meanClusterNodes 	11
scalar RSUExampleScenario.node[77].appl 	meanClusterHeadUtility 	17.357386605961
scalar RSUExampleScenario.node[77].appl 	NumberofCH 	0.054054054054054
scalar RSUExampleScenario.node[77].appl 	NumberofON 	0.27027027027027
scalar RSUExampleScenario.node[77].appl 	NumberofFN 	0.67567567567568
scalar RSUExampleScenario.node[77].veinsmobility 	startTime 	185.6
scalar RSUExampleScenario.node[77].veinsmobility 	totalTime 	264.4
scalar RSUExampleScenario.node[77].veinsmobility 	stopTime 	450
scalar RSUExampleScenario.node[77].veinsmobility 	minSpeed 	0
scalar RSUExampleScenario.node[77].veinsmobility 	maxSpeed 	13.999725908728
scalar RSUExampleScenario.node[77].veinsmobility 	totalDistance 	592.12886081587
scalar RSUExampleScenario.node[77].veinsmobility 	totalCO2Emission 	368.8777032525
scalar RSUExampleScenario.node[78].appl 	meanClusterNodes 	0
scalar RSUExampleScenario.node[78].appl 	meanClusterHeadUtility 	0
scalar RSUExampleScenario.node[78].appl 	NumberofCH 	0
scalar RSUExampleScenario.node[78].appl 	NumberofON 	0.51351351351351
scalar RSUExampleScenario.node[78].appl 	NumberofFN 	0.48648648648649
scalar RSUExampleScenario.node[78].veinsmobility 	startTime 	188
scalar RSUExampleScenario.node[78].veinsmobility 	totalTime 	262
scalar RSUExampleScenario.node[78].veinsmobility 	stopTime 	450
scalar RSUExampleScenario.node[78].veinsmobility 	minSpeed 	0
scalar RSUExampleScenario.node[78].veinsmobility 	maxSpeed 	13.997168335933
scalar RSUExampleScenario.node[78].veinsmobility 	totalDistance 	557.14388883222
scalar RSUExampleScenario.node[78].veinsmobility 	totalCO2Emission 	362.333814342
scalar RSUExampleScenario.node[79].appl 	meanClusterNodes 	9.75
scalar RSUExampleScenario.node[79].appl 	meanClusterHeadUtility 	8.8756002209618
scalar RSUExampleScenario.node[79].appl 	NumberofCH 	0.10810810810811
scalar RSUExampleScenario.node[79].appl 	NumberofON 	0.35135135135135
scalar RSUExampleScenario.node[79].appl 	NumberofFN 	0.54054054054054
scalar RSUExampleScenario.node[79].veinsmobility 	startTime 	190.4
scalar RSUExampleScenario.node[79].veinsmobility 	totalTime 	259.6
scalar RSUExampleScenario.node[79].veinsmobility 	stopTime 	450
scalar RSUExampleScenario.node[79].veinsmobility 	minSpeed 	0
scalar RSUExampleScenario.node[79].veinsmobility 	maxSpeed 	13.999863100362
scalar RSUExampleScenario.node[79].veinsmobility 	totalDistance 	525.42973233731
scalar RSUExampleScenario.node[79].veinsmobility 	totalCO2Emission 	356.38857028468
scalar RSUExampleScenario.node[8].appl 	meanClusterNodes 	4.5
scalar RSUExampleScenario.node[8].appl 	meanClusterHeadUtility 	18.373549706788
scalar RSUExampleScenario.node[8].appl 	NumberofCH 	0.054054054054054
scalar RSUExampleScenario.node[8].appl 	NumberofON 	0.32432432432432
scalar RSUExampleScenario.node[8].appl 	NumberofFN 	0.62162162162162
scalar RSUExampleScenario.node[8].veinsmobility 	startTime 	19.3
scalar RSUExampleScenario.node[8].veinsmobility 	totalTime 	430.7
scalar RSUExampleScenario.node[8].veinsmobility 	stopTime 	450
scalar RSUExampleScenario.node[8].veinsmobility 	minSpeed 	0
scalar RSUExampleScenario.node[8].veinsmobility 	maxSpeed 	13.999988998405
scalar RSUExampleScenario.node[8].veinsmobility 	totalDistance 	2859.0651392798
scalar RSUExampleScenario.node[8].veinsmobility 	totalCO2Emission 	770.2513551365
scalar RSUExampleScenario.node[80].appl 	meanClusterNodes 	8
scalar RSUExampleScenario.node[80].appl 	meanClusterHeadUtility 	17.098788535055
scalar RSUExampleScenario.node[80].appl 	NumberofCH 	0.054054054054054
scalar RSUExampleScenario.node[80].appl 	NumberofON 	0.32432432432432
scalar RSUExampleScenario.node[80].appl 	NumberofFN 	0.62162162162162
scalar RSUExampleScenario.node[80].veinsmobility 	startTime 	192.9
scalar RSUExampleScenario.node[80].veinsmobility 	totalTime 	257.1
scalar RSUExampleScenario.node[80].veinsmobility 	stopTime 	450
scalar RSUExampleScenario.node[80].veinsmobility 	minSpeed 	0
scalar RSUExampleScenario.node[80].veinsmobility 	maxSpeed 	13.999837026461
scalar RSUExampleScenario.node[80].veinsmobility 	totalDistance 	491.04241406525
scalar RSUExampleScenario.node[80].veinsmobility 	totalCO2Emission 	350.25284835465
scalar RSUExampleScenario.node[81].appl 	meanClusterNodes 	9.5
scalar RSUExampleScenario.node[81].appl 	meanClusterHeadUtility 	17.856819342627
scalar RSUExampleScenario.node[81].appl 	NumberofCH 	0.054054054054054
scalar RSUExampleScenario.node[81].appl 	NumberofON 	0.2972972972973
scalar RSUExampleScenario.node[81].appl 	NumberofFN 	0.64864864864865
scalar RSUExampleScenario.node[81].veinsmobility 	startTime 	195.3
scalar RSUExampleScenario.node[81].veinsmobility 	totalTime 	254.7
scalar RSUExampleScenario.node[81].veinsmobility 	stopTime 	450
scalar RSUExampleScenario.node[81].veinsmobility 	minSpeed 	0
scalar RSUExampleScenario.node[81].veinsmobility 	maxSpeed 	13.99859847201
scalar RSUExampleScenario.node[81].veinsmobility 	totalDistance 	457.18997722849
scalar RSUExampleScenario.node[81].veinsmobility 	totalCO2Emission 	344.68784817558
scalar RSUExampleScenario.node[82].appl 	meanClusterNodes 	3.5
scalar RSUExampleScenario.node[82].appl 	meanClusterHeadUtility 	16.130073603631
scalar RSUExampleScenario.node[82].appl 	NumberofCH 	0.054054054054054
scalar RSUExampleScenario.node[82].appl 	NumberofON 	0.62162162162162
scalar RSUExampleScenario.node[82].appl 	NumberofFN 	0.32432432432432
scalar RSUExampleScenario.node[82].veinsmobility 	startTime 	197.7
scalar RSUExampleScenario.node[82].veinsmobility 	totalTime 	252.3
scalar RSUExampleScenario.node[82].veinsmobility 	stopTime 	450
scalar RSUExampleScenario.node[82].veinsmobility 	minSpeed 	0
scalar RSUExampleScenario.node[82].veinsmobility 	maxSpeed 	13.998557461889
scalar RSUExampleScenario.node[82].veinsmobility 	totalDistance 	422.66992889177
scalar RSUExampleScenario.node[82].veinsmobility 	totalCO2Emission 	339.4514222372
scalar RSUExampleScenario.node[83].appl 	meanClusterNodes 	0
scalar RSUExampleScenario.node[83].appl 	meanClusterHeadUtility 	0
scalar RSUExampleScenario.node[83].appl 	NumberofCH 	0
scalar RSUExampleScenario.node[83].appl 	NumberofON 	0.35135135135135
scalar RSUExampleScenario.node[83].appl 	NumberofFN 	0.64864864864865
scalar RSUExampleScenario.node[83].veinsmobility 	startTime 	200.1
scalar RSUExampleScenario.node[83].veinsmobility 	totalTime 	249.9
scalar RSUExampleScenario.node[83].veinsmobility 	stopTime 	450
scalar RSUExampleScenario.node[83].veinsmobility 	minSpeed 	0
scalar RSUExampleScenario.node[83].veinsmobility 	maxSpeed 	13.997854765889
scalar RSUExampleScenario.node[83].veinsmobility 	totalDistance 	390.36287381962
scalar RSUExampleScenario.node[83].veinsmobility 	totalCO2Emission 	333.72203500562
scalar RSUExampleScenario.node[84].appl 	meanClusterNodes 	4.5
scalar RSUExampleScenario.node[84].appl 	meanClusterHeadUtility 	17.558238901725
scalar RSUExampleScenario.node[84].appl 	NumberofCH 	0.054054054054054
scalar RSUExampleScenario.node[84].appl 	NumberofON 	0.51351351351351
scalar RSUExampleScenario.node[84].appl 	NumberofFN 	0.43243243243243
scalar RSUExampleScenario.node[84].veinsmobility 	startTime 	202.5
scalar RSUExampleScenario.node[84].veinsmobility 	totalTime 	247.5
scalar RSUExampleScenario.node[84].veinsmobility 	stopTime 	450
scalar RSUExampleScenario.node[84].veinsmobility 	minSpeed 	0
scalar RSUExampleScenario.node[84].veinsmobility 	maxSpeed 	13.994188112123
scalar RSUExampleScenario.node[84].veinsmobility 	totalDistance 	355.40244497324
scalar RSUExampleScenario.node[84].veinsmobility 	totalCO2Emission 	327.90655723053
scalar RSUExampleScenario.node[85].appl 	meanClusterNodes 	0
scalar RSUExampleScenario.node[85].appl 	meanClusterHeadUtility 	0
scalar RSUExampleScenario.node[85].appl 	NumberofCH 	0.054054054054054
scalar RSUExampleScenario.node[85].appl 	NumberofON 	0.18918918918919
scalar RSUExampleScenario.node[85].appl 	NumberofFN 	0.75675675675676
scalar RSUExampleScenario.node[85].veinsmobility 	startTime 	204.9
scalar RSUExampleScenario.node[85].veinsmobility 	totalTime 	245.1
scalar RSUExampleScenario.node[85].veinsmobility 	stopTime 	450
scalar RSUExampleScenario.node[85].veinsmobility 	minSpeed 	0
scalar RSUExampleScenario.node[85].veinsmobility 	maxSpeed 	13.99016775457
scalar RSUExampleScenario.node[85].veinsmobility 	totalDistance 	321.40090620771
scalar RSUExampleScenario.node[85].veinsmobility 	totalCO2Emission 	321.88289466497
scalar RSUExampleScenario.node[86].appl 	meanClusterNodes 	2
scalar RSUExampleScenario.node[86].appl 	meanClusterHeadUtility 	16.546415627841
scalar RSUExampleScenario.node[86].appl 	NumberofCH 	0.054054054054054
scalar RSUExampleScenario.node[86].appl 	NumberofON 	0.24324324324324
scalar RSUExampleScenario.node[86].appl 	NumberofFN 	0.7027027027027
scalar RSUExampleScenario.node[86].veinsmobility 	startTime 	207.3
scalar RSUExampleScenario.node[86].veinsmobility 	totalTime 	242.7
scalar RSUExampleScenario.node[86].veinsmobility 	stopTime 	450
scalar RSUExampleScenario.node[86].veinsmobility 	minSpeed 	0
scalar RSUExampleScenario.node[86].veinsmobility 	maxSpeed 	13.817380738272
scalar RSUExampleScenario.node[86].veinsmobility 	totalDistance 	288.49030541085
scalar RSUExampleScenario.node[86].veinsmobility 	totalCO2Emission 	316.98365770723
scalar RSUExampleScenario.node[87].appl 	meanClusterNodes 	5
scalar RSUExampleScenario.node[87].appl 	meanClusterHeadUtility 	16.953027700676
scalar RSUExampleScenario.node[87].appl 	NumberofCH 	0.054054054054054
scalar RSUExampleScenario.node[87].appl 	NumberofON 	0.32432432432432
scalar RSUExampleScenario.node[87].appl 	NumberofFN 	0.62162162162162
scalar RSUExampleScenario.node[87].veinsmobility 	startTime 	209.7
scalar RSUExampleScenario.node[87].veinsmobility 	totalTime 	240.3
scalar RSUExampleScenario.node[87].veinsmobility 	stopTime 	450
scalar RSUExampleScenario.node[87].veinsmobility 	minSpeed 	0
scalar RSUExampleScenario.node[87].veinsmobility 	maxSpeed 	13.887232472519
scalar RSUExampleScenario.node[87].veinsmobility 	totalDistance 	248.51274508267
scalar RSUExampleScenario.node[87].veinsmobility 	totalCO2Emission 	298.28920161397
scalar RSUExam