version 2
run statistic4-822-20150324-16:55:59-12892
attr c 15
attr configname statistic4
attr datetime 20150324-16:55:59
attr experiment statistic4
attr inifile omnetpp.ini
attr iterationvars "$p=1/8, $c=15"
attr iterationvars2 "$p=1/8, $c=15, $repetition=22"
attr measurement "$p=1/8, $c=15"
attr network RSUExampleScenario
attr p 1/8
attr processid 12892
attr repetition 22
attr replication #22
attr resultdir results
attr runnumber 822
attr seedset 822

scalar . 	c 	15
scalar RSUExampleScenario.rsu[0].appl 	NumberofCH 	10
scalar RSUExampleScenario.rsu[0].appl 	NumberofON 	90
scalar RSUExampleScenario.rsu[0].appl 	NumberofFN 	0
scalar RSUExampleScenario.rsu[0].appl 	meanClusterNodes 	9
scalar RSUExampleScenario.rsu[0].appl 	varClusterNodes 	3.9749213828704
scalar RSUExampleScenario.rsu[0].appl 	sumCHutility 	336.93926287703
scalar RSUExampleScenario.rsu[0].appl 	meanCHutility 	33.693926287703
scalar RSUExampleScenario.rsu[0].appl 	varCHutility 	11.268936840658
scalar RSUExampleScenario.rsu[0].appl 	sumDiffCHutility 	4.7061111688443
scalar RSUExampleScenario.rsu[0].appl 	meanDiffCHutility 	0.47061111688443
scalar RSUExampleScenario.rsu[0].appl 	varDiffCHutility 	11.258957816785
scalar RSUExampleScenario.rsu[0].appl 	expectedCHutility 	341.64537404587
scalar RSUExampleScenario.rsu[0].appl 	meanExpectedCHutility 	34.164537404587
scalar RSUExampleScenario.rsu[0].appl 	varExpectedCHutility 	0.48775885446335
scalar RSUExampleScenario.node[0].veinsmobility 	startTime 	0.1
scalar RSUExampleScenario.node[0].veinsmobility 	totalTime 	349.9
scalar RSUExampleScenario.node[0].veinsmobility 	stopTime 	350
scalar RSUExampleScenario.node[0].veinsmobility 	minSpeed 	0
scalar RSUExampleScenario.node[0].veinsmobility 	maxSpeed 	13.999949516787
scalar RSUExampleScenario.node[0].veinsmobility 	totalDistance 	3131.6835510121
scalar RSUExampleScenario.node[0].veinsmobility 	totalCO2Emission 	740.88763065409
scalar RSUExampleScenario.node[1].veinsmobility 	startTime 	2.5
scalar RSUExampleScenario.node[1].veinsmobility 	totalTime 	347.5
scalar RSUExampleScenario.node[1].veinsmobility 	stopTime 	350
scalar RSUExampleScenario.node[1].veinsmobility 	minSpeed 	0
scalar RSUExampleScenario.node[1].veinsmobility 	maxSpeed 	13.999922952999
scalar RSUExampleScenario.node[1].veinsmobility 	totalDistance 	3079.8631007772
scalar RSUExampleScenario.node[1].veinsmobility 	totalCO2Emission 	730.96967110627
scalar RSUExampleScenario.node[10].veinsmobility 	startTime 	24.2
scalar RSUExampleScenario.node[10].veinsmobility 	totalTime 	325.8
scalar RSUExampleScenario.node[10].veinsmobility 	stopTime 	350
scalar RSUExampleScenario.node[10].veinsmobility 	minSpeed 	0
scalar RSUExampleScenario.node[10].veinsmobility 	maxSpeed 	13.999637288491
scalar RSUExampleScenario.node[10].veinsmobility 	totalDistance 	2791.9313584682
scalar RSUExampleScenario.node[10].veinsmobility 	totalCO2Emission 	660.79090095429
scalar RSUExampleScenario.node[11].veinsmobility 	startTime 	26.6
scalar RSUExampleScenario.node[11].veinsmobility 	totalTime 	323.4
scalar RSUExampleScenario.node[11].veinsmobility 	stopTime 	350
scalar RSUExampleScenario.node[11].veinsmobility 	minSpeed 	0
scalar RSUExampleScenario.node[11].veinsmobility 	maxSpeed 	13.999949949589
scalar RSUExampleScenario.node[11].veinsmobility 	totalDistance 	2752.6655786516
scalar RSUExampleScenario.node[11].veinsmobility 	totalCO2Emission 	654.85331111597
scalar RSUExampleScenario.node[12].veinsmobility 	startTime 	29
scalar RSUExampleScenario.node[12].veinsmobility 	totalTime 	321
scalar RSUExampleScenario.node[12].veinsmobility 	stopTime 	350
scalar RSUExampleScenario.node[12].veinsmobility 	minSpeed 	0
scalar RSUExampleScenario.node[12].veinsmobility 	maxSpeed 	13.999797114553
scalar RSUExampleScenario.node[12].veinsmobility 	totalDistance 	2722.0329609099
scalar RSUExampleScenario.node[12].veinsmobility 	totalCO2Emission 	650.15787116769
scalar RSUExampleScenario.node[13].veinsmobility 	startTime 	31.4
scalar RSUExampleScenario.node[13].veinsmobility 	totalTime 	318.6
scalar RSUExampleScenario.node[13].veinsmobility 	stopTime 	350
scalar RSUExampleScenario.node[13].veinsmobility 	minSpeed 	0
scalar RSUExampleScenario.node[13].veinsmobility 	maxSpeed 	13.999867399051
scalar RSUExampleScenario.node[13].veinsmobility 	totalDistance 	2680.1553230505
scalar RSUExampleScenario.node[13].veinsmobility 	totalCO2Emission 	644.32876104411
scalar RSUExampleScenario.node[14].veinsmobility 	startTime 	33.8
scalar RSUExampleScenario.node[14].veinsmobility 	totalTime 	316.2
scalar RSUExampleScenario.node[14].veinsmobility 	stopTime 	350
scalar RSUExampleScenario.node[14].veinsmobility 	minSpeed 	0
scalar RSUExampleScenario.node[14].veinsmobility 	maxSpeed 	13.99992041972
scalar RSUExampleScenario.node[14].veinsmobility 	totalDistance 	2651.9616165996
scalar RSUExampleScenario.node[14].veinsmobility 	totalCO2Emission 	636.79756013641
scalar RSUExampleScenario.node[15].veinsmobility 	startTime 	36.2
scalar RSUExampleScenario.node[15].veinsmobility 	totalTime 	313.8
scalar RSUExampleScenario.node[15].veinsmobility 	stopTime 	350
scalar RSUExampleScenario.node[15].veinsmobility 	minSpeed 	0
scalar RSUExampleScenario.node[15].veinsmobility 	maxSpeed 	13.999880792573
scalar RSUExampleScenario.node[15].veinsmobility 	totalDistance 	2612.4918624484
scalar RSUExampleScenario.node[15].veinsmobility 	totalCO2Emission 	633.39852397772
scalar RSUExampleScenario.node[16].veinsmobility 	startTime 	38.6
scalar RSUExampleScenario.node[16].veinsmobility 	totalTime 	311.4
scalar RSUExampleScenario.node[16].veinsmobility 	stopTime 	350
scalar RSUExampleScenario.node[16].veinsmobility 	minSpeed 	0
scalar RSUExampleScenario.node[16].veinsmobility 	maxSpeed 	13.999889291399
scalar RSUExampleScenario.node[16].veinsmobility 	totalDistance 	2583.8820745217
scalar RSUExampleScenario.node[16].veinsmobility 	totalCO2Emission 	625.17173929036
scalar RSUExampleScenario.node[17].veinsmobility 	startTime 	41
scalar RSUExampleScenario.node[17].veinsmobility 	totalTime 	309
scalar RSUExampleScenario.node[17].veinsmobility 	stopTime 	350
scalar RSUExampleScenario.node[17].veinsmobility 	minSpeed 	0
scalar RSUExampleScenario.node[17].veinsmobility 	maxSpeed 	13.999961591291
scalar RSUExampleScenario.node[17].veinsmobility 	totalDistance 	2538.1605952843
scalar RSUExampleScenario.node[17].veinsmobility 	totalCO2Emission 	621.13968153373
scalar RSUExampleScenario.node[18].veinsmobility 	startTime 	43.4
scalar RSUExampleScenario.node[18].veinsmobility 	totalTime 	306.6
scalar RSUExampleScenario.node[18].veinsmobility 	stopTime 	350
scalar RSUExampleScenario.node[18].veinsmobility 	minSpeed 	0
scalar RSUExampleScenario.node[18].veinsmobility 	maxSpeed 	13.999928698437
scalar RSUExampleScenario.node[18].veinsmobility 	totalDistance 	2510.7514411995
scalar RSUExampleScenario.node[18].veinsmobility 	totalCO2Emission 	613.74331338104
scalar RSUExampleScenario.node[19].veinsmobility 	startTime 	45.8
scalar RSUExampleScenario.node[19].veinsmobility 	totalTime 	304.2
scalar RSUExampleScenario.node[19].veinsmobility 	stopTime 	350
scalar RSUExampleScenario.node[19].veinsmobility 	minSpeed 	0
scalar RSUExampleScenario.node[19].veinsmobility 	maxSpeed 	13.999868779301
scalar RSUExampleScenario.node[19].veinsmobility 	totalDistance 	2470.4757603018
scalar RSUExampleScenario.node[19].veinsmobility 	totalCO2Emission 	609.89309375041
scalar RSUExampleScenario.node[2].veinsmobility 	startTime 	4.9
scalar RSUExampleScenario.node[2].veinsmobility 	totalTime 	345.1
scalar RSUExampleScenario.node[2].veinsmobility 	stopTime 	350
scalar RSUExampleScenario.node[2].veinsmobility 	minSpeed 	0
scalar RSUExampleScenario.node[2].veinsmobility 	maxSpeed 	13.99986954947
scalar RSUExampleScenario.node[2].veinsmobility 	totalDistance 	3039.0335901782
scalar RSUExampleScenario.node[2].veinsmobility 	totalCO2Emission 	726.51084839896
scalar RSUExampleScenario.node[20].veinsmobility 	startTime 	48.3
scalar RSUExampleScenario.node[20].veinsmobility 	totalTime 	301.7
scalar RSUExampleScenario.node[20].veinsmobility 	stopTime 	350
scalar RSUExampleScenario.node[20].veinsmobility 	minSpeed 	0
scalar RSUExampleScenario.node[20].veinsmobility 	maxSpeed 	13.999877568034
scalar RSUExampleScenario.node[20].veinsmobility 	totalDistance 	2441.440395651
scalar RSUExampleScenario.node[20].veinsmobility 	totalCO2Emission 	605.13929714101
scalar RSUExampleScenario.node[21].veinsmobility 	startTime 	50.7
scalar RSUExampleScenario.node[21].veinsmobility 	totalTime 	299.3
scalar RSUExampleScenario.node[21].veinsmobility 	stopTime 	350
scalar RSUExampleScenario.node[21].veinsmobility 	minSpeed 	0
scalar RSUExampleScenario.node[21].veinsmobility 	maxSpeed 	13.999921211863
scalar RSUExampleScenario.node[21].veinsmobility 	totalDistance 	2401.9876849589
scalar RSUExampleScenario.node[21].veinsmobility 	totalCO2Emission 	600.64877573166
scalar RSUExampleScenario.node[22].veinsmobility 	startTime 	53.1
scalar RSUExampleScenario.node[22].veinsmobility 	totalTime 	296.9
scalar RSUExampleScenario.node[22].veinsmobility 	stopTime 	350
scalar RSUExampleScenario.node[22].veinsmobility 	minSpeed 	0
scalar RSUExampleScenario.node[22].veinsmobility 	maxSpeed 	13.999975776442
scalar RSUExampleScenario.node[22].veinsmobility 	totalDistance 	2373.6367003748
scalar RSUExampleScenario.node[22].veinsmobility 	totalCO2Emission 	590.68837814526
scalar RSUExampleScenario.node[23].veinsmobility 	startTime 	55.5
scalar RSUExampleScenario.node[23].veinsmobility 	totalTime 	294.5
scalar RSUExampleScenario.node[23].veinsmobility 	stopTime 	350
scalar RSUExampleScenario.node[23].veinsmobility 	minSpeed 	0
scalar RSUExampleScenario.node[23].veinsmobility 	maxSpeed 	13.999791972749
scalar RSUExampleScenario.node[23].veinsmobility 	totalDistance 	2334.5498913003
scalar RSUExampleScenario.node[23].veinsmobility 	totalCO2Emission 	588.66702143134
scalar RSUExampleScenario.node[24].veinsmobility 	startTime 	57.9
scalar RSUExampleScenario.node[24].veinsmobility 	totalTime 	292.1
scalar RSUExampleScenario.node[24].veinsmobility 	stopTime 	350
scalar RSUExampleScenario.node[24].veinsmobility 	minSpeed 	0
scalar RSUExampleScenario.node[24].veinsmobility 	maxSpeed 	13.999969799877
scalar RSUExampleScenario.node[24].veinsmobility 	totalDistance 	2305.8310295921
scalar RSUExampleScenario.node[24].veinsmobility 	totalCO2Emission 	577.17004579531
scalar RSUExampleScenario.node[25].veinsmobility 	startTime 	60.3
scalar RSUExampleScenario.node[25].veinsmobility 	totalTime 	289.7
scalar RSUExampleScenario.node[25].veinsmobility 	stopTime 	350
scalar RSUExampleScenario.node[25].veinsmobility 	minSpeed 	0
scalar RSUExampleScenario.node[25].veinsmobility 	maxSpeed 	13.999993941681
scalar RSUExampleScenario.node[25].veinsmobility 	totalDistance 	2267.9032468005
scalar RSUExampleScenario.node[25].veinsmobility 	totalCO2Emission 	572.14116606866
scalar RSUExampleScenario.node[26].veinsmobility 	startTime 	62.7
scalar RSUExampleScenario.node[26].veinsmobility 	totalTime 	287.3
scalar RSUExampleScenario.node[26].veinsmobility 	stopTime 	350
scalar RSUExampleScenario.node[26].veinsmobility 	minSpeed 	0
scalar RSUExampleScenario.node[26].veinsmobility 	maxSpeed 	13.999972715774
scalar RSUExampleScenario.node[26].veinsmobility 	totalDistance 	2239.2792431889
scalar RSUExampleScenario.node[26].veinsmobility 	totalCO2Emission 	571.29615380275
scalar RSUExampleScenario.node[27].veinsmobility 	startTime 	65.1
scalar RSUExampleScenario.node[27].veinsmobility 	totalTime 	284.9
scalar RSUExampleScenario.node[27].veinsmobility 	stopTime 	350
scalar RSUExampleScenario.node[27].veinsmobility 	minSpeed 	0
scalar RSUExampleScenario.node[27].veinsmobility 	maxSpeed 	13.999992048691
scalar RSUExampleScenario.node[27].veinsmobility 	totalDistance 	2201.7109766066
scalar RSUExampleScenario.node[27].veinsmobility 	totalCO2Emission 	562.26937587277
scalar RSUExampleScenario.node[28].veinsmobility 	startTime 	67.5
scalar RSUExampleScenario.node[28].veinsmobility 	totalTime 	282.5
scalar RSUExampleScenario.node[28].veinsmobility 	stopTime 	350
scalar RSUExampleScenario.node[28].veinsmobility 	minSpeed 	0
scalar RSUExampleScenario.node[28].veinsmobility 	maxSpeed 	13.99972670299
scalar RSUExampleScenario.node[28].veinsmobility 	totalDistance 	2169.699724535
scalar RSUExampleScenario.node[28].veinsmobility 	totalCO2Emission 	558.3734343169
scalar RSUExampleScenario.node[29].veinsmobility 	startTime 	69.9
scalar RSUExampleScenario.node[29].veinsmobility 	totalTime 	280.1
scalar RSUExampleScenario.node[29].veinsmobility 	stopTime 	350
scalar RSUExampleScenario.node[29].veinsmobility 	minSpeed 	0
scalar RSUExampleScenario.node[29].veinsmobility 	maxSpeed 	13.999893064818
scalar RSUExampleScenario.node[29].veinsmobility 	totalDistance 	2135.4001215565
scalar RSUExampleScenario.node[29].veinsmobility 	totalCO2Emission 	552.52827751835
scalar RSUExampleScenario.node[3].veinsmobility 	startTime 	7.3
scalar RSUExampleScenario.node[3].veinsmobility 	totalTime 	342.7
scalar RSUExampleScenario.node[3].veinsmobility 	stopTime 	350
scalar RSUExampleScenario.node[3].veinsmobility 	minSpeed 	0
scalar RSUExampleScenario.node[3].veinsmobility 	maxSpeed 	13.999998264827
scalar RSUExampleScenario.node[3].veinsmobility 	totalDistance 	2992.0568476934
scalar RSUExampleScenario.node[3].veinsmobility 	totalCO2Emission 	715.61986459348
scalar RSUExampleScenario.node[30].veinsmobility 	startTime 	72.4
scalar RSUExampleScenario.node[30].veinsmobility 	totalTime 	277.6
scalar RSUExampleScenario.node[30].veinsmobility 	stopTime 	350
scalar RSUExampleScenario.node[30].veinsmobility 	minSpeed 	0
scalar RSUExampleScenario.node[30].veinsmobility 	maxSpeed 	13.99983479568
scalar RSUExampleScenario.node[30].veinsmobility 	totalDistance 	2101.6184761467
scalar RSUExampleScenario.node[30].veinsmobility 	totalCO2Emission 	550.08743523313
scalar RSUExampleScenario.node[31].veinsmobility 	startTime 	74.8
scalar RSUExampleScenario.node[31].veinsmobility 	totalTime 	275.2
scalar RSUExampleScenario.node[31].veinsmobility 	stopTime 	350
scalar RSUExampleScenario.node[31].veinsmobility 	minSpeed 	0
scalar RSUExampleScenario.node[31].veinsmobility 	maxSpeed 	13.999863805333
scalar RSUExampleScenario.node[31].veinsmobility 	totalDistance 	2065.7030897495
scalar RSUExampleScenario.node[31].veinsmobility 	totalCO2Emission 	538.49175261205
scalar RSUExampleScenario.node[32].veinsmobility 	startTime 	77.2
scalar RSUExampleScenario.node[32].veinsmobility 	totalTime 	272.8
scalar RSUExampleScenario.node[32].veinsmobility 	stopTime 	350
scalar RSUExampleScenario.node[32].veinsmobility 	minSpeed 	0
scalar RSUExampleScenario.node[32].veinsmobility 	maxSpeed 	13.999932034696
scalar RSUExampleScenario.node[32].veinsmobility 	totalDistance 	2033.0572437691
scalar RSUExampleScenario.node[32].veinsmobility 	totalCO2Emission 	535.16768161067
scalar RSUExampleScenario.node[33].veinsmobility 	startTime 	79.6
scalar RSUExampleScenario.node[33].veinsmobility 	totalTime 	270.4
scalar RSUExampleScenario.node[33].veinsmobility 	stopTime 	350
scalar RSUExampleScenario.node[33].veinsmobility 	minSpeed 	0
scalar RSUExampleScenario.node[33].veinsmobility 	maxSpeed 	13.999840163677
scalar RSUExampleScenario.node[33].veinsmobility 	totalDistance 	2000.1636857529
scalar RSUExampleScenario.node[33].veinsmobility 	totalCO2Emission 	530.62576015884
scalar RSUExampleScenario.node[34].veinsmobility 	startTime 	82
scalar RSUExampleScenario.node[34].veinsmobility 	totalTime 	268
scalar RSUExampleScenario.node[34].veinsmobility 	stopTime 	350
scalar RSUExampleScenario.node[34].veinsmobility 	minSpeed 	0
scalar RSUExampleScenario.node[34].veinsmobility 	maxSpeed 	13.999922439109
scalar RSUExampleScenario.node[34].veinsmobility 	totalDistance 	1964.6537812402
scalar RSUExampleScenario.node[34].veinsmobility 	totalCO2Emission 	524.72923507146
scalar RSUExampleScenario.node[35].veinsmobility 	startTime 	84.4
scalar RSUExampleScenario.node[35].veinsmobility 	totalTime 	265.6
scalar RSUExampleScenario.node[35].veinsmobility 	stopTime 	350
scalar RSUExampleScenario.node[35].veinsmobility 	minSpeed 	0
scalar RSUExampleScenario.node[35].veinsmobility 	maxSpeed 	13.999929482953
scalar RSUExampleScenario.node[35].veinsmobility 	totalDistance 	1929.6053186752
scalar RSUExampleScenario.node[35].veinsmobility 	totalCO2Emission 	518.77278639296
scalar RSUExampleScenario.node[36].veinsmobility 	startTime 	86.8
scalar RSUExampleScenario.node[36].veinsmobility 	totalTime 	263.2
scalar RSUExampleScenario.node[36].veinsmobility 	stopTime 	350
scalar RSUExampleScenario.node[36].veinsmobility 	minSpeed 	0
scalar RSUExampleScenario.node[36].veinsmobility 	maxSpeed 	13.999988935024
scalar RSUExampleScenario.node[36].veinsmobility 	totalDistance 	1897.8409471567
scalar RSUExampleScenario.node[36].veinsmobility 	totalCO2Emission 	511.58195830412
scalar RSUExampleScenario.node[37].veinsmobility 	startTime 	89.2
scalar RSUExampleScenario.node[37].veinsmobility 	totalTime 	260.8
scalar RSUExampleScenario.node[37].veinsmobility 	stopTime 	350
scalar RSUExampleScenario.node[37].veinsmobility 	minSpeed 	0
scalar RSUExampleScenario.node[37].veinsmobility 	maxSpeed 	13.999948552146
scalar RSUExampleScenario.node[37].veinsmobility 	totalDistance 	1865.296381228
scalar RSUExampleScenario.node[37].veinsmobility 	totalCO2Emission 	509.70169818201
scalar RSUExampleScenario.node[38].veinsmobility 	startTime 	91.6
scalar RSUExampleScenario.node[38].veinsmobility 	totalTime 	258.4
scalar RSUExampleScenario.node[38].veinsmobility 	stopTime 	350
scalar RSUExampleScenario.node[38].veinsmobility 	minSpeed 	0
scalar RSUExampleScenario.node[38].veinsmobility 	maxSpeed 	13.999339627449
scalar RSUExampleScenario.node[38].veinsmobility 	totalDistance 	1831.2829032607
scalar RSUExampleScenario.node[38].veinsmobility 	totalCO2Emission 	501.40631993574
scalar RSUExampleScenario.node[39].veinsmobility 	startTime 	94
scalar RSUExampleScenario.node[39].veinsmobility 	totalTime 	256
scalar RSUExampleScenario.node[39].veinsmobility 	stopTime 	350
scalar RSUExampleScenario.node[39].veinsmobility 	minSpeed 	0
scalar RSUExampleScenario.node[39].veinsmobility 	maxSpeed 	13.999930056955
scalar RSUExampleScenario.node[39].veinsmobility 	totalDistance 	1796.6300664483
scalar RSUExampleScenario.node[39].veinsmobility 	totalCO2Emission 	496.23691757147
scalar RSUExampleScenario.node[4].veinsmobility 	startTime 	9.7
scalar RSUExampleScenario.node[4].veinsmobility 	totalTime 	340.3
scalar RSUExampleScenario.node[4].veinsmobility 	stopTime 	350
scalar RSUExampleScenario.node[4].veinsmobility 	minSpeed 	0
scalar RSUExampleScenario.node[4].veinsmobility 	maxSpeed 	13.999949384122
scalar RSUExampleScenario.node[4].veinsmobility 	totalDistance 	2949.7197214994
scalar RSUExampleScenario.node[4].veinsmobility 	totalCO2Emission 	703.15974112809
scalar RSUExampleScenario.node[40].veinsmobility 	startTime 	96.5
scalar RSUExampleScenario.node[40].veinsmobility 	totalTime 	253.5
scalar RSUExampleScenario.node[40].veinsmobility 	stopTime 	350
scalar RSUExampleScenario.node[40].veinsmobility 	minSpeed 	0
scalar RSUExampleScenario.node[40].veinsmobility 	maxSpeed 	13.999950610793
scalar RSUExampleScenario.node[40].veinsmobility 	totalDistance 	1764.2824487698
scalar RSUExampleScenario.node[40].veinsmobility 	totalCO2Emission 	489.53861917265
scalar RSUExampleScenario.node[41].veinsmobility 	startTime 	98.9
scalar RSUExampleScenario.node[41].veinsmobility 	totalTime 	251.1
scalar RSUExampleScenario.node[41].veinsmobility 	stopTime 	350
scalar RSUExampleScenario.node[41].veinsmobility 	minSpeed 	0
scalar RSUExampleScenario.node[41].veinsmobility 	maxSpeed 	13.999625581349
scalar RSUExampleScenario.node[41].veinsmobility 	totalDistance 	1730.122428487
scalar RSUExampleScenario.node[41].veinsmobility 	totalCO2Emission 	484.91994958992
scalar RSUExampleScenario.node[42].veinsmobility 	startTime 	101.3
scalar RSUExampleScenario.node[42].veinsmobility 	totalTime 	248.7
scalar RSUExampleScenario.node[42].veinsmobility 	stopTime 	350
scalar RSUExampleScenario.node[42].veinsmobility 	minSpeed 	0
scalar RSUExampleScenario.node[42].veinsmobility 	maxSpeed 	13.999920723611
scalar RSUExampleScenario.node[42].veinsmobility 	totalDistance 	1696.8418338721
scalar RSUExampleScenario.node[42].veinsmobility 	totalCO2Emission 	477.4399501886
scalar RSUExampleScenario.node[43].veinsmobility 	startTime 	103.7
scalar RSUExampleScenario.node[43].veinsmobility 	totalTime 	246.3
scalar RSUExampleScenario.node[43].veinsmobility 	stopTime 	350
scalar RSUExampleScenario.node[43].veinsmobility 	minSpeed 	0
scalar RSUExampleScenario.node[43].veinsmobility 	maxSpeed 	13.999936327422
scalar RSUExampleScenario.node[43].veinsmobility 	totalDistance 	1663.2823288637
scalar RSUExampleScenario.node[43].veinsmobility 	totalCO2Emission 	469.26945846427
scalar RSUExampleScenario.node[44].veinsmobility 	startTime 	106.1
scalar RSUExampleScenario.node[44].veinsmobility 	totalTime 	243.9
scalar RSUExampleScenario.node[44].veinsmobility 	stopTime 	350
scalar RSUExampleScenario.node[44].veinsmobility 	minSpeed 	0
scalar RSUExampleScenario.node[44].veinsmobility 	maxSpeed 	13.999924997571
scalar RSUExampleScenario.node[44].veinsmobility 	totalDistance 	1630.528051801
scalar RSUExampleScenario.node[44].veinsmobility 	totalCO2Emission 	469.53055763757
scalar RSUExampleScenario.node[45].veinsmobility 	startTime 	108.5
scalar RSUExampleScenario.node[45].veinsmobility 	totalTime 	241.5
scalar RSUExampleScenario.node[45].veinsmobility 	stopTime 	350
scalar RSUExampleScenario.node[45].veinsmobility 	minSpeed 	0
scalar RSUExampleScenario.node[45].veinsmobility 	maxSpeed 	13.999901498749
scalar RSUExampleScenario.node[45].veinsmobility 	totalDistance 	1596.0393456453
scalar RSUExampleScenario.node[45].veinsmobility 	totalCO2Emission 	463.67221278841
scalar RSUExampleScenario.node[46].veinsmobility 	startTime 	110.9
scalar RSUExampleScenario.node[46].veinsmobility 	totalTime 	239.1
scalar RSUExampleScenario.node[46].veinsmobility 	stopTime 	350
scalar RSUExampleScenario.node[46].veinsmobility 	minSpeed 	0
scalar RSUExampleScenario.node[46].veinsmobility 	maxSpeed 	13.999901150577
scalar RSUExampleScenario.node[46].veinsmobility 	totalDistance 	1564.0498270936
scalar RSUExampleScenario.node[46].veinsmobility 	totalCO2Emission 	457.59733027791
scalar RSUExampleScenario.node[47].veinsmobility 	startTime 	113.3
scalar RSUExampleScenario.node[47].veinsmobility 	totalTime 	236.7
scalar RSUExampleScenario.node[47].veinsmobility 	stopTime 	350
scalar RSUExampleScenario.node[47].veinsmobility 	minSpeed 	0
scalar RSUExampleScenario.node[47].veinsmobility 	maxSpeed 	13.999969636248
scalar RSUExampleScenario.node[47].veinsmobility 	totalDistance 	1530.0565641519
scalar RSUExampleScenario.node[47].veinsmobility 	totalCO2Emission 	449.88725424422
scalar RSUExampleScenario.node[48].veinsmobility 	startTime 	115.7
scalar RSUExampleScenario.node[48].veinsmobility 	totalTime 	234.3
scalar RSUExampleScenario.node[48].veinsmobility 	stopTime 	350
scalar RSUExampleScenario.node[48].veinsmobility 	minSpeed 	0
scalar RSUExampleScenario.node[48].veinsmobility 	maxSpeed 	13.999572336697
scalar RSUExampleScenario.node[48].veinsmobility 	totalDistance 	1493.9039619266
scalar RSUExampleScenario.node[48].veinsmobility 	totalCO2Emission 	445.47154047013
scalar RSUExampleScenario.node[49].veinsmobility 	startTime 	118.1
scalar RSUExampleScenario.node[49].veinsmobility 	totalTime 	231.9
scalar RSUExampleScenario.node[49].veinsmobility 	stopTime 	350
scalar RSUExampleScenario.node[49].veinsmobility 	minSpeed 	0
scalar RSUExampleScenario.node[49].veinsmobility 	maxSpeed 	13.999985615201
scalar RSUExampleScenario.node[49].veinsmobility 	totalDistance 	1461.2833073446
scalar RSUExampleScenario.node[49].veinsmobility 	totalCO2Emission 	436.89616342285
scalar RSUExampleScenario.node[5].veinsmobility 	startTime 	12.1
scalar RSUExampleScenario.node[5].veinsmobility 	totalTime 	337.9
scalar RSUExampleScenario.node[5].veinsmobility 	stopTime 	350
scalar RSUExampleScenario.node[5].veinsmobility 	minSpeed 	0
scalar RSUExampleScenario.node[5].veinsmobility 	maxSpeed 	13.999968967598
scalar RSUExampleScenario.node[5].veinsmobility 	totalDistance 	2914.0061286546
scalar RSUExampleScenario.node[5].veinsmobility 	totalCO2Emission 	689.56230216467
scalar RSUExampleScenario.node[50].veinsmobility 	startTime 	120.6
scalar RSUExampleScenario.node[50].veinsmobility 	totalTime 	229.4
scalar RSUExampleScenario.node[50].veinsmobility 	stopTime 	350
scalar RSUExampleScenario.node[50].veinsmobility 	minSpeed 	0
scalar RSUExampleScenario.node[50].veinsmobility 	maxSpeed 	13.999547196201
scalar RSUExampleScenario.node[50].veinsmobility 	totalDistance 	1428.4359505376
scalar RSUExampleScenario.node[50].veinsmobility 	totalCO2Emission 	431.64526512061
scalar RSUExampleScenario.node[51].veinsmobility 	startTime 	123
scalar RSUExampleScenario.node[51].veinsmobility 	totalTime 	227
scalar RSUExampleScenario.node[51].veinsmobility 	stopTime 	350
scalar RSUExampleScenario.node[51].veinsmobility 	minSpeed 	0
scalar RSUExampleScenario.node[51].veinsmobility 	maxSpeed 	13.999834630932
scalar RSUExampleScenario.node[51].veinsmobility 	totalDistance 	1394.4968130157
scalar RSUExampleScenario.node[51].veinsmobility 	totalCO2Emission 	428.55792056385
scalar RSUExampleScenario.node[52].veinsmobility 	startTime 	125.4
scalar RSUExampleScenario.node[52].veinsmobility 	totalTime 	224.6
scalar RSUExampleScenario.node[52].veinsmobility 	stopTime 	350
scalar RSUExampleScenario.node[52].veinsmobility 	minSpeed 	0
scalar RSUExampleScenario.node[52].veinsmobility 	maxSpeed 	13.999640098449
scalar RSUExampleScenario.node[52].veinsmobility 	totalDistance 	1361.2092438769
scalar RSUExampleScenario.node[52].veinsmobility 	totalCO2Emission 	421.95131768282
scalar RSUExampleScenario.node[53].veinsmobility 	startTime 	127.8
scalar RSUExampleScenario.node[53].veinsmobility 	totalTime 	222.2
scalar RSUExampleScenario.node[53].veinsmobility 	stopTime 	350
scalar RSUExampleScenario.node[53].veinsmobility 	minSpeed 	0
scalar RSUExampleScenario.node[53].veinsmobility 	maxSpeed 	13.999877224008
scalar RSUExampleScenario.node[53].veinsmobility 	totalDistance 	1328.0543068121
scalar RSUExampleScenario.node[53].veinsmobility 	totalCO2Emission 	415.56834859498
scalar RSUExampleScenario.node[54].veinsmobility 	startTime 	130.2
scalar RSUExampleScenario.node[54].veinsmobility 	totalTime 	219.8
scalar RSUExampleScenario.node[54].veinsmobility 	stopTime 	350
scalar RSUExampleScenario.node[54].veinsmobility 	minSpeed 	0
scalar RSUExampleScenario.node[54].veinsmobility 	maxSpeed 	13.999986423568
scalar RSUExampleScenario.node[54].veinsmobility 	totalDistance 	1293.6565346597
scalar RSUExampleScenario.node[54].veinsmobility 	totalCO2Emission 	411.45037219868
scalar RSUExampleScenario.node[55].veinsmobility 	startTime 	132.6
scalar RSUExampleScenario.node[55].veinsmobility 	totalTime 	217.4
scalar RSUExampleScenario.node[55].veinsmobility 	stopTime 	350
scalar RSUExampleScenario.node[55].veinsmobility 	minSpeed 	0
scalar RSUExampleScenario.node[55].veinsmobility 	maxSpeed 	13.999802359934
scalar RSUExampleScenario.node[55].veinsmobility 	totalDistance 	1260.5037814095
scalar RSUExampleScenario.node[55].veinsmobility 	totalCO2Emission 	406.26017207734
scalar RSUExampleScenario.node[56].veinsmobility 	startTime 	135
scalar RSUExampleScenario.node[56].veinsmobility 	totalTime 	215
scalar RSUExampleScenario.node[56].veinsmobility 	stopTime 	350
scalar RSUExampleScenario.node[56].veinsmobility 	minSpeed 	0
scalar RSUExampleScenario.node[56].veinsmobility 	maxSpeed 	13.999992994899
scalar RSUExampleScenario.node[56].veinsmobility 	totalDistance 	1225.9441954031
scalar RSUExampleScenario.node[56].veinsmobility 	totalCO2Emission 	400.42535902488
scalar RSUExampleScenario.node[57].veinsmobility 	startTime 	137.4
scalar RSUExampleScenario.node[57].veinsmobility 	totalTime 	212.6
scalar RSUExampleScenario.node[57].veinsmobility 	stopTime 	350
scalar RSUExampleScenario.node[57].veinsmobility 	minSpeed 	0
scalar RSUExampleScenario.node[57].veinsmobility 	maxSpeed 	13.999955993106
scalar RSUExampleScenario.node[57].veinsmobility 	totalDistance 	1193.8932452636
scalar RSUExampleScenario.node[57].veinsmobility 	totalCO2Emission 	394.42109366141
scalar RSUExampleScenario.node[58].veinsmobility 	startTime 	139.8
scalar RSUExampleScenario.node[58].veinsmobility 	totalTime 	210.2
scalar RSUExampleScenario.node[58].veinsmobility 	stopTime 	350
scalar RSUExampleScenario.node[58].veinsmobility 	minSpeed 	0
scalar RSUExampleScenario.node[58].veinsmobility 	maxSpeed 	13.999842073829
scalar RSUExampleScenario.node[58].veinsmobility 	totalDistance 	1158.3139662657
scalar RSUExampleScenario.node[58].veinsmobility 	totalCO2Emission 	388.61757917064
scalar RSUExampleScenario.node[59].veinsmobility 	startTime 	142.2
scalar RSUExampleScenario.node[59].veinsmobility 	totalTime 	207.8
scalar RSUExampleScenario.node[59].veinsmobility 	stopTime 	350
scalar RSUExampleScenario.node[59].veinsmobility 	minSpeed 	0
scalar RSUExampleScenario.node[59].veinsmobility 	maxSpeed 	13.999810707602
scalar RSUExampleScenario.node[59].veinsmobility 	totalDistance 	1126.0329822696
scalar RSUExampleScenario.node[59].veinsmobility 	totalCO2Emission 	381.58238111565
scalar RSUExampleScenario.node[6].veinsmobility 	startTime 	14.5
scalar RSUExampleScenario.node[6].veinsmobility 	totalTime 	335.5
scalar RSUExampleScenario.node[6].veinsmobility 	stopTime 	350
scalar RSUExampleScenario.node[6].veinsmobility 	minSpeed 	0
scalar RSUExampleScenario.node[6].veinsmobility 	maxSpeed 	13.999986761359
scalar RSUExampleScenario.node[6].veinsmobility 	totalDistance 	2905.6715454229
scalar RSUExampleScenario.node[6].veinsmobility 	totalCO2Emission 	679.8754484207
scalar RSUExampleScenario.node[60].veinsmobility 	startTime 	144.7
scalar RSUExampleScenario.node[60].veinsmobility 	totalTime 	205.3
scalar RSUExampleScenario.node[60].veinsmobility 	stopTime 	350
scalar RSUExampleScenario.node[60].veinsmobility 	minSpeed 	0
scalar RSUExampleScenario.node[60].veinsmobility 	maxSpeed 	13.999744739137
scalar RSUExampleScenario.node[60].veinsmobility 	totalDistance 	1092.1542681573
scalar RSUExampleScenario.node[60].veinsmobility 	totalCO2Emission 	379.24858776141
scalar RSUExampleScenario.node[61].veinsmobility 	startTime 	147.1
scalar RSUExampleScenario.node[61].veinsmobility 	totalTime 	202.9
scalar RSUExampleScenario.node[61].veinsmobility 	stopTime 	350
scalar RSUExampleScenario.node[61].veinsmobility 	minSpeed 	0
scalar RSUExampleScenario.node[61].veinsmobility 	maxSpeed 	13.999415285331
scalar RSUExampleScenario.node[61].veinsmobility 	totalDistance 	1058.6952636217
scalar RSUExampleScenario.node[61].veinsmobility 	totalCO2Emission 	372.40988201796
scalar RSUExampleScenario.node[62].veinsmobility 	startTime 	149.5
scalar RSUExampleScenario.node[62].veinsmobility 	totalTime 	200.5
scalar RSUExampleScenario.node[62].veinsmobility 	stopTime 	350
scalar RSUExampleScenario.node[62].veinsmobility 	minSpeed 	0
scalar RSUExampleScenario.node[62].veinsmobility 	maxSpeed 	13.999952650522
scalar RSUExampleScenario.node[62].veinsmobility 	totalDistance 	1024.6980565164
scalar RSUExampleScenario.node[62].veinsmobility 	totalCO2Emission 	365.25454811736
scalar RSUExampleScenario.node[63].veinsmobility 	startTime 	151.9
scalar RSUExampleScenario.node[63].veinsmobility 	totalTime 	198.1
scalar RSUExampleScenario.node[63].veinsmobility 	stopTime 	350
scalar RSUExampleScenario.node[63].veinsmobility 	minSpeed 	0
scalar RSUExampleScenario.node[63].veinsmobility 	maxSpeed 	13.999747662207
scalar RSUExampleScenario.node[63].veinsmobility 	totalDistance 	986.79937594403
scalar RSUExampleScenario.node[63].veinsmobility 	totalCO2Emission 	353.23871214277
scalar RSUExampleScenario.node[64].veinsmobility 	startTime 	154.3
scalar RSUExampleScenario.node[64].veinsmobility 	totalTime 	195.7
scalar RSUExampleScenario.node[64].veinsmobility 	stopTime 	350
scalar RSUExampleScenario.node[64].veinsmobility 	minSpeed 	0
scalar RSUExampleScenario.node[64].veinsmobility 	maxSpeed 	13.999421338716
scalar RSUExampleScenario.node[64].veinsmobility 	totalDistance 	954.57740181431
scalar RSUExampleScenario.node[64].veinsmobility 	totalCO2Emission 	338.53713137006
scalar RSUExampleScenario.node[65].veinsmobility 	startTime 	156.7
scalar RSUExampleScenario.node[65].veinsmobility 	totalTime 	193.3
scalar RSUExampleScenario.node[65].veinsmobility 	stopTime 	350
scalar RSUExampleScenario.node[65].veinsmobility 	minSpeed 	0
scalar RSUExampleScenario.node[65].veinsmobility 	maxSpeed 	13.999726068664
scalar RSUExampleScenario.node[65].veinsmobility 	totalDistance 	940.66866629838
scalar RSUExampleScenario.node[65].veinsmobility 	totalCO2Emission 	332.44788781556
scalar RSUExampleScenario.node[66].veinsmobility 	startTime 	159.1
scalar RSUExampleScenario.node[66].veinsmobility 	totalTime 	190.9
scalar RSUExampleScenario.node[66].veinsmobility 	stopTime 	350
scalar RSUExampleScenario.node[66].veinsmobility 	minSpeed 	0
scalar RSUExampleScenario.node[66].veinsmobility 	maxSpeed 	13.999700610111
scalar RSUExampleScenario.node[66].veinsmobility 	totalDistance 	928.58247280281
scalar RSUExampleScenario.node[66].veinsmobility 	totalCO2Emission 	325.9848458837
scalar RSUExampleScenario.node[67].veinsmobility 	startTime 	161.5
scalar RSUExampleScenario.node[67].veinsmobility 	totalTime 	188.5
scalar RSUExampleScenario.node[67].veinsmobility 	stopTime 	350
scalar RSUExampleScenario.node[67].veinsmobility 	minSpeed 	0
scalar RSUExampleScenario.node[67].veinsmobility 	maxSpeed 	13.999961244208
scalar RSUExampleScenario.node[67].veinsmobility 	totalDistance 	913.64769118222
scalar RSUExampleScenario.node[67].veinsmobility 	totalCO2Emission 	324.97549106743
scalar RSUExampleScenario.node[68].veinsmobility 	startTime 	163.9
scalar RSUExampleScenario.node[68].veinsmobility 	totalTime 	186.1
scalar RSUExampleScenario.node[68].veinsmobility 	stopTime 	350
scalar RSUExampleScenario.node[68].veinsmobility 	minSpeed 	0
scalar RSUExampleScenario.node[68].veinsmobility 	maxSpeed 	13.999969456547
scalar RSUExampleScenario.node[68].veinsmobility 	totalDistance 	894.29503805444
scalar RSUExampleScenario.node[68].veinsmobility 	totalCO2Emission 	320.9163840737
scalar RSUExampleScenario.node[69].veinsmobility 	startTime 	166.3
scalar RSUExampleScenario.node[69].veinsmobility 	totalTime 	183.7
scalar RSUExampleScenario.node[69].veinsmobility 	stopTime 	350
scalar RSUExampleScenario.node[69].veinsmobility 	minSpeed 	0
scalar RSUExampleScenario.node[69].veinsmobility 	maxSpeed 	13.999579052709
scalar RSUExampleScenario.node[69].veinsmobility 	totalDistance 	861.78396486667
scalar RSUExampleScenario.node[69].veinsmobility 	totalCO2Emission 	315.05891177512
scalar RSUExampleScenario.node[7].veinsmobility 	startTime 	16.9
scalar RSUExampleScenario.node[7].veinsmobility 	totalTime 	333.1
scalar RSUExampleScenario.node[7].veinsmobility 	stopTime 	350
scalar RSUExampleScenario.node[7].veinsmobility 	minSpeed 	0
scalar RSUExampleScenario.node[7].veinsmobility 	maxSpeed 	13.999847765481
scalar RSUExampleScenario.node[7].veinsmobility 	totalDistance 	2885.1874178861
scalar RSUExampleScenario.node[7].veinsmobility 	totalCO2Emission 	682.20095081065
scalar RSUExampleScenario.node[70].veinsmobility 	startTime 	168.8
scalar RSUExampleScenario.node[70].veinsmobility 	totalTime 	181.2
scalar RSUExampleScenario.node[70].veinsmobility 	stopTime 	350
scalar RSUExampleScenario.node[70].veinsmobility 	minSpeed 	0
scalar RSUExampleScenario.node[70].veinsmobility 	maxSpeed 	13.999863159747
scalar RSUExampleScenario.node[70].veinsmobility 	totalDistance 	825.76983326733
scalar RSUExampleScenario.node[70].veinsmobility 	totalCO2Emission 	312.34892251497
scalar RSUExampleScenario.node[71].veinsmobility 	startTime 	171.2
scalar RSUExampleScenario.node[71].veinsmobility 	totalTime 	178.8
scalar RSUExampleScenario.node[71].veinsmobility 	stopTime 	350
scalar RSUExampleScenario.node[71].veinsmobility 	minSpeed 	0
scalar RSUExampleScenario.node[71].veinsmobility 	maxSpeed 	13.999204550488
scalar RSUExampleScenario.node[71].veinsmobility 	totalDistance 	794.46582140752
scalar RSUExampleScenario.node[71].veinsmobility 	totalCO2Emission 	303.92934969691
scalar RSUExampleScenario.node[72].veinsmobility 	startTime 	173.6
scalar RSUExampleScenario.node[72].veinsmobility 	totalTime 	176.4
scalar RSUExampleScenario.node[72].veinsmobility 	stopTime 	350
scalar RSUExampleScenario.node[72].veinsmobility 	minSpeed 	0
scalar RSUExampleScenario.node[72].veinsmobility 	maxSpeed 	13.99996373832
scalar RSUExampleScenario.node[72].veinsmobility 	totalDistance 	759.88204933917
scalar RSUExampleScenario.node[72].veinsmobility 	totalCO2Emission 	299.3540548037
scalar RSUExampleScenario.node[73].veinsmobility 	startTime 	176
scalar RSUExampleScenario.node[73].veinsmobility 	totalTime 	174
scalar RSUExampleScenario.node[73].veinsmobility 	stopTime 	350
scalar RSUExampleScenario.node[73].veinsmobility 	minSpeed 	0
scalar RSUExampleScenario.node[73].veinsmobility 	maxSpeed 	13.998888140337
scalar RSUExampleScenario.node[73].veinsmobility 	totalDistance 	726.24424084177
scalar RSUExampleScenario.node[73].veinsmobility 	totalCO2Emission 	294.8132510636
scalar RSUExampleScenario.node[74].veinsmobility 	startTime 	178.4
scalar RSUExampleScenario.node[74].veinsmobility 	totalTime 	171.6
scalar RSUExampleScenario.node[74].veinsmobility 	stopTime 	350
scalar RSUExampleScenario.node[74].veinsmobility 	minSpeed 	0
scalar RSUExampleScenario.node[74].veinsmobility 	maxSpeed 	13.999291130905
scalar RSUExampleScenario.node[74].veinsmobility 	totalDistance 	691.15389459979
scalar RSUExampleScenario.node[74].veinsmobility 	totalCO2Emission 	287.71972558634
scalar RSUExampleScenario.node[75].veinsmobility 	startTime 	180.8
scalar RSUExampleScenario.node[75].veinsmobility 	totalTime 	169.2
scalar RSUExampleScenario.node[75].veinsmobility 	stopTime 	350
scalar RSUExampleScenario.node[75].veinsmobility 	minSpeed 	0
scalar RSUExampleScenario.node[75].veinsmobility 	maxSpeed 	13.99903826887
scalar RSUExampleScenario.node[75].veinsmobility 	totalDistance 	658.15724321943
scalar RSUExampleScenario.node[75].veinsmobility 	totalCO2Emission 	282.32210547067
scalar RSUExampleScenario.node[76].veinsmobility 	startTime 	183.2
scalar RSUExampleScenario.node[76].veinsmobility 	totalTime 	166.8
scalar RSUExampleScenario.node[76].veinsmobility 	stopTime 	350
scalar RSUExampleScenario.node[76].veinsmobility 	minSpeed 	0
scalar RSUExampleScenario.node[76].veinsmobility 	maxSpeed 	13.99971338199
scalar RSUExampleScenario.node[76].veinsmobility 	totalDistance 	624.6181900384
scalar RSUExampleScenario.node[76].veinsmobility 	totalCO2Emission 	275.87178610745
scalar RSUExampleScenario.node[77].veinsmobility 	startTime 	185.6
scalar RSUExampleScenario.node[77].veinsmobility 	totalTime 	164.4
scalar RSUExampleScenario.node[77].veinsmobility 	stopTime 	350
scalar RSUExampleScenario.node[77].veinsmobility 	minSpeed 	0
scalar RSUExampleScenario.node[77].veinsmobility 	maxSpeed 	13.998488193366
scalar RSUExampleScenario.node[77].veinsmobility 	totalDistance 	591.25133092686
scalar RSUExampleScenario.node[77].veinsmobility 	totalCO2Emission 	271.11175121206
scalar RSUExampleScenario.node[78].veinsmobility 	startTime 	188
scalar RSUExampleScenario.node[78].veinsmobility 	totalTime 	162
scalar RSUExampleScenario.node[78].veinsmobility 	stopTime 	350
scalar RSUExampleScenario.node[78].veinsmobility 	minSpeed 	0
scalar RSUExampleScenario.node[78].veinsmobility 	maxSpeed 	13.998761903353
scalar RSUExampleScenario.node[78].veinsmobility 	totalDistance 	557.8134347586
scalar RSUExampleScenario.node[78].veinsmobility 	totalCO2Emission 	264.6049258402
scalar RSUExampleScenario.node[79].veinsmobility 	startTime 	190.4
scalar RSUExampleScenario.node[79].veinsmobility 	totalTime 	159.6
scalar RSUExampleScenario.node[79].veinsmobility 	stopTime 	350
scalar RSUExampleScenario.node[79].veinsmobility 	minSpeed 	0
scalar RSUExampleScenario.node[79].veinsmobility 	maxSpeed 	13.998834416361
scalar RSUExampleScenario.node[79].veinsmobility 	totalDistance 	523.75567628475
scalar RSUExampleScenario.node[79].veinsmobility 	totalCO2Emission 	260.33013414092
scalar RSUExampleScenario.node[8].veinsmobility 	startTime 	19.3
scalar RSUExampleScenario.node[8].veinsmobility 	totalTime 	330.7
scalar RSUExampleScenario.node[8].veinsmobility 	stopTime 	350
scalar RSUExampleScenario.node[8].veinsmobility 	minSpeed 	0
scalar RSUExampleScenario.node[8].veinsmobility 	maxSpeed 	13.999938791145
scalar RSUExampleScenario.node[8].veinsmobility 	totalDistance 	2863.7241975319
scalar RSUExampleScenario.node[8].veinsmobility 	totalCO2Emission 	673.90821896549
scalar RSUExampleScenario.node[80].veinsmobility 	startTime 	192.9
scalar RSUExampleScenario.node[80].veinsmobility 	totalTime 	157.1
scalar RSUExampleScenario.node[80].veinsmobility 	stopTime 	350
scalar RSUExampleScenario.node[80].veinsmobility 	minSpeed 	0
scalar RSUExampleScenario.node[80].veinsmobility 	maxSpeed 	13.999307346493
scalar RSUExampleScenario.node[80].veinsmobility 	totalDistance 	487.96421081875
scalar RSUExampleScenario.node[80].veinsmobility 	totalCO2Emission 	253.69192118605
scalar RSUExampleScenario.node[81].veinsmobility 	startTime 	195.3
scalar RSUExampleScenario.node[81].veinsmobility 	totalTime 	154.7
scalar RSUExampleScenario.node[81].veinsmobility 	stopTime 	350
scalar RSUExampleScenario.node[81].veinsmobility 	minSpeed 	0
scalar RSUExampleScenario.node[81].veinsmobility 	maxSpeed 	13.999330502953
scalar RSUExampleScenario.node[81].veinsmobility 	totalDistance 	456.53584049955
scalar RSUExampleScenario.node[81].veinsmobility 	totalCO2Emission 	249.06208336463
scalar RSUExampleScenario.node[82].veinsmobility 	startTime 	197.7
scalar RSUExampleScenario.node[82].veinsmobility 	totalTime 	152.3
scalar RSUExampleScenario.node[82].veinsmobility 	stopTime 	350
scalar RSUExampleScenario.node[82].veinsmobility 	minSpeed 	0
scalar RSUExampleScenario.node[82].veinsmobility 	maxSpeed 	13.999373542331
scalar RSUExampleScenario.node[82].veinsmobility 	totalDistance 	421.57574627954
scalar RSUExampleScenario.node[82].veinsmobility 	totalCO2Emission 	243.1455088471
scalar RSUExampleScenario.node[83].veinsmobility 	startTime 	200.1
scalar RSUExampleScenario.node[83].veinsmobility 	totalTime 	149.9
scalar RSUExampleScenario.node[83].veinsmobility 	stopTime 	350
scalar RSUExampleScenario.node[83].veinsmobility 	minSpeed 	0
scalar RSUExampleScenario.node[83].veinsmobility 	maxSpeed 	13.999265218303
scalar RSUExampleScenario.node[83].veinsmobility 	totalDistance 	389.16845168765
scalar RSUExampleScenario.node[83].veinsmobility 	totalCO2Emission 	236.83758787959
scalar RSUExampleScenario.node[84].veinsmobility 	startTime 	202.5
scalar RSUExampleScenario.node[84].veinsmobility 	totalTime 	147.5
scalar RSUExampleScenario.node[84].veinsmobility 	stopTime 	350
scalar RSUExampleScenario.node[84].veinsmobility 	minSpeed 	0
scalar RSUExampleScenario.node[84].veinsmobility 	maxSpeed 	13.997254045571
scalar RSUExampleScenario.node[84].veinsmobility 	totalDistance 	354.24672930926
scalar RSUExampleScenario.node[84].veinsmobility 	totalCO2Emission 	230.17560499763
scalar RSUExampleScenario.node[85].veinsmobility 	startTime 	204.9
scalar RSUExampleScenario.node[85].veinsmobility 	totalTime 	145.1
scalar RSUExampleScenario.node[85].veinsmobility 	stopTime 	350
scalar RSUExampleScenario.node[85].veinsmobility 	minSpeed 	0
scalar RSUExampleScenario.node[85].veinsmobility 	maxSpeed 	13.993735342375
scalar RSUExampleScenario.node[85].veinsmobility 	totalDistance 	322.4456635063
scalar RSUExampleScenario.node[85].veinsmobility 	totalCO2Emission 	225.40107183867
scalar RSUExampleScenario.node[86].veinsmobility 	startTime 	207.3
scalar RSUExampleScenario.node[86].veinsmobility 	totalTime 	142.7
scalar RSUExampleScenario.node[86].veinsmobility 	stopTime 	350
scalar RSUExampleScenario.node[86].veinsmobility 	minSpeed 	0
scalar RSUExampleScenario.node[86].veinsmobility 	maxSpeed 	13.882157857304
scalar RSUExampleScenario.node[86].veinsmobility 	totalDistance 	287.51492035892
scalar RSUExampleScenario.node[86].veinsmobility 	totalCO2Emission 	219.147315246
scalar RSUExampleScenario.node[87].veinsmobility 	startTime 	209.7
scalar RSUExampleScenario.node[87].veinsmobility 	totalTime 	140.3
scalar RSUExampleScenario.node[87].veinsmobility 	stopTime 	350
scalar RSUExampleScenario.node[87].veinsmobility 	minSpeed 	0
scalar RSUExampleScenario.node[87].veinsmobility 	maxSpeed 	13.850116489325
scalar RSUExampleScenario.node[87].veinsmobility 	totalDistance 	249.50372236464
scalar RSUExampleScenario.node[87].veinsmobility 	totalCO2Emission 	202.10280685232
scalar RSUExampleScenario.node[88].veinsmobility 	startTime 	212.1
scalar RSUExampleScenario.node[88].veinsmobility 	totalTime 	137.9
scalar RSUExampleScenario.node[88].veinsmobility 	stopTime 	350
scalar RSUExa