version 2
run statistic4-480-20150324-14:32:11-3124
attr c 11
attr configname statistic4
attr datetime 20150324-14:32:11
attr experiment statistic4
attr inifile omnetpp.ini
attr iterationvars "$p=1/8, $c=11"
attr iterationvars2 "$p=1/8, $c=11, $repetition=80"
attr measurement "$p=1/8, $c=11"
attr network RSUExampleScenario
attr p 1/8
attr processid 3124
attr repetition 80
attr replication #80
attr resultdir results
attr runnumber 480
attr seedset 480

scalar . 	c 	11
scalar RSUExampleScenario.rsu[0].appl 	NumberofCH 	21
scalar RSUExampleScenario.rsu[0].appl 	NumberofON 	79
scalar RSUExampleScenario.rsu[0].appl 	NumberofFN 	0
scalar RSUExampleScenario.rsu[0].appl 	meanClusterNodes 	3.7619047619048
scalar RSUExampleScenario.rsu[0].appl 	varClusterNodes 	2.7929291997362
scalar RSUExampleScenario.rsu[0].appl 	sumCHutility 	793.33859094786
scalar RSUExampleScenario.rsu[0].appl 	meanCHutility 	37.778028140374
scalar RSUExampleScenario.rsu[0].appl 	varCHutility 	8.6685543810555
scalar RSUExampleScenario.rsu[0].appl 	sumDiffCHutility 	-78.006221149337
scalar RSUExampleScenario.rsu[0].appl 	meanDiffCHutility 	-3.7145819594922
scalar RSUExampleScenario.rsu[0].appl 	varDiffCHutility 	8.5110270434253
scalar RSUExampleScenario.rsu[0].appl 	expectedCHutility 	715.33236979852
scalar RSUExampleScenario.rsu[0].appl 	meanExpectedCHutility 	34.063446180882
scalar RSUExampleScenario.rsu[0].appl 	varExpectedCHutility 	0.64776031776531
scalar RSUExampleScenario.node[0].veinsmobility 	startTime 	0.1
scalar RSUExampleScenario.node[0].veinsmobility 	totalTime 	349.9
scalar RSUExampleScenario.node[0].veinsmobility 	stopTime 	350
scalar RSUExampleScenario.node[0].veinsmobility 	minSpeed 	0
scalar RSUExampleScenario.node[0].veinsmobility 	maxSpeed 	13.999947685725
scalar RSUExampleScenario.node[0].veinsmobility 	totalDistance 	3129.1951244592
scalar RSUExampleScenario.node[0].veinsmobility 	totalCO2Emission 	741.84424605226
scalar RSUExampleScenario.node[1].veinsmobility 	startTime 	2.5
scalar RSUExampleScenario.node[1].veinsmobility 	totalTime 	347.5
scalar RSUExampleScenario.node[1].veinsmobility 	stopTime 	350
scalar RSUExampleScenario.node[1].veinsmobility 	minSpeed 	0
scalar RSUExampleScenario.node[1].veinsmobility 	maxSpeed 	13.999928121106
scalar RSUExampleScenario.node[1].veinsmobility 	totalDistance 	3076.0845359197
scalar RSUExampleScenario.node[1].veinsmobility 	totalCO2Emission 	727.04458301362
scalar RSUExampleScenario.node[10].veinsmobility 	startTime 	24.2
scalar RSUExampleScenario.node[10].veinsmobility 	totalTime 	325.8
scalar RSUExampleScenario.node[10].veinsmobility 	stopTime 	350
scalar RSUExampleScenario.node[10].veinsmobility 	minSpeed 	0
scalar RSUExampleScenario.node[10].veinsmobility 	maxSpeed 	13.999952180248
scalar RSUExampleScenario.node[10].veinsmobility 	totalDistance 	2793.3623458338
scalar RSUExampleScenario.node[10].veinsmobility 	totalCO2Emission 	662.13432847756
scalar RSUExampleScenario.node[11].veinsmobility 	startTime 	26.6
scalar RSUExampleScenario.node[11].veinsmobility 	totalTime 	323.4
scalar RSUExampleScenario.node[11].veinsmobility 	stopTime 	350
scalar RSUExampleScenario.node[11].veinsmobility 	minSpeed 	0
scalar RSUExampleScenario.node[11].veinsmobility 	maxSpeed 	13.99990962761
scalar RSUExampleScenario.node[11].veinsmobility 	totalDistance 	2751.0496581273
scalar RSUExampleScenario.node[11].veinsmobility 	totalCO2Emission 	657.12809483682
scalar RSUExampleScenario.node[12].veinsmobility 	startTime 	29
scalar RSUExampleScenario.node[12].veinsmobility 	totalTime 	321
scalar RSUExampleScenario.node[12].veinsmobility 	stopTime 	350
scalar RSUExampleScenario.node[12].veinsmobility 	minSpeed 	0
scalar RSUExampleScenario.node[12].veinsmobility 	maxSpeed 	13.999873915808
scalar RSUExampleScenario.node[12].veinsmobility 	totalDistance 	2721.660041568
scalar RSUExampleScenario.node[12].veinsmobility 	totalCO2Emission 	646.87710845971
scalar RSUExampleScenario.node[13].veinsmobility 	startTime 	31.4
scalar RSUExampleScenario.node[13].veinsmobility 	totalTime 	318.6
scalar RSUExampleScenario.node[13].veinsmobility 	stopTime 	350
scalar RSUExampleScenario.node[13].veinsmobility 	minSpeed 	0
scalar RSUExampleScenario.node[13].veinsmobility 	maxSpeed 	13.999965447038
scalar RSUExampleScenario.node[13].veinsmobility 	totalDistance 	2680.269175052
scalar RSUExampleScenario.node[13].veinsmobility 	totalCO2Emission 	643.19101904279
scalar RSUExampleScenario.node[14].veinsmobility 	startTime 	33.8
scalar RSUExampleScenario.node[14].veinsmobility 	totalTime 	316.2
scalar RSUExampleScenario.node[14].veinsmobility 	stopTime 	350
scalar RSUExampleScenario.node[14].veinsmobility 	minSpeed 	0
scalar RSUExampleScenario.node[14].veinsmobility 	maxSpeed 	13.999721582404
scalar RSUExampleScenario.node[14].veinsmobility 	totalDistance 	2652.0497041638
scalar RSUExampleScenario.node[14].veinsmobility 	totalCO2Emission 	638.49440212958
scalar RSUExampleScenario.node[15].veinsmobility 	startTime 	36.2
scalar RSUExampleScenario.node[15].veinsmobility 	totalTime 	313.8
scalar RSUExampleScenario.node[15].veinsmobility 	stopTime 	350
scalar RSUExampleScenario.node[15].veinsmobility 	minSpeed 	0
scalar RSUExampleScenario.node[15].veinsmobility 	maxSpeed 	13.999978348312
scalar RSUExampleScenario.node[15].veinsmobility 	totalDistance 	2612.76332829
scalar RSUExampleScenario.node[15].veinsmobility 	totalCO2Emission 	629.83819687404
scalar RSUExampleScenario.node[16].veinsmobility 	startTime 	38.6
scalar RSUExampleScenario.node[16].veinsmobility 	totalTime 	311.4
scalar RSUExampleScenario.node[16].veinsmobility 	stopTime 	350
scalar RSUExampleScenario.node[16].veinsmobility 	minSpeed 	0
scalar RSUExampleScenario.node[16].veinsmobility 	maxSpeed 	13.999922611637
scalar RSUExampleScenario.node[16].veinsmobility 	totalDistance 	2584.3626622556
scalar RSUExampleScenario.node[16].veinsmobility 	totalCO2Emission 	629.72808358484
scalar RSUExampleScenario.node[17].veinsmobility 	startTime 	41
scalar RSUExampleScenario.node[17].veinsmobility 	totalTime 	309
scalar RSUExampleScenario.node[17].veinsmobility 	stopTime 	350
scalar RSUExampleScenario.node[17].veinsmobility 	minSpeed 	0
scalar RSUExampleScenario.node[17].veinsmobility 	maxSpeed 	13.999986140563
scalar RSUExampleScenario.node[17].veinsmobility 	totalDistance 	2539.2604473052
scalar RSUExampleScenario.node[17].veinsmobility 	totalCO2Emission 	619.44157101942
scalar RSUExampleScenario.node[18].veinsmobility 	startTime 	43.4
scalar RSUExampleScenario.node[18].veinsmobility 	totalTime 	306.6
scalar RSUExampleScenario.node[18].veinsmobility 	stopTime 	350
scalar RSUExampleScenario.node[18].veinsmobility 	minSpeed 	0
scalar RSUExampleScenario.node[18].veinsmobility 	maxSpeed 	13.999906288234
scalar RSUExampleScenario.node[18].veinsmobility 	totalDistance 	2509.9852462836
scalar RSUExampleScenario.node[18].veinsmobility 	totalCO2Emission 	614.62178538764
scalar RSUExampleScenario.node[19].veinsmobility 	startTime 	45.8
scalar RSUExampleScenario.node[19].veinsmobility 	totalTime 	304.2
scalar RSUExampleScenario.node[19].veinsmobility 	stopTime 	350
scalar RSUExampleScenario.node[19].veinsmobility 	minSpeed 	0
scalar RSUExampleScenario.node[19].veinsmobility 	maxSpeed 	13.999980135909
scalar RSUExampleScenario.node[19].veinsmobility 	totalDistance 	2470.5502989568
scalar RSUExampleScenario.node[19].veinsmobility 	totalCO2Emission 	607.48932549901
scalar RSUExampleScenario.node[2].veinsmobility 	startTime 	4.9
scalar RSUExampleScenario.node[2].veinsmobility 	totalTime 	345.1
scalar RSUExampleScenario.node[2].veinsmobility 	stopTime 	350
scalar RSUExampleScenario.node[2].veinsmobility 	minSpeed 	0
scalar RSUExampleScenario.node[2].veinsmobility 	maxSpeed 	13.99992194901
scalar RSUExampleScenario.node[2].veinsmobility 	totalDistance 	3037.3017413066
scalar RSUExampleScenario.node[2].veinsmobility 	totalCO2Emission 	726.4504948827
scalar RSUExampleScenario.node[20].veinsmobility 	startTime 	48.3
scalar RSUExampleScenario.node[20].veinsmobility 	totalTime 	301.7
scalar RSUExampleScenario.node[20].veinsmobility 	stopTime 	350
scalar RSUExampleScenario.node[20].veinsmobility 	minSpeed 	0
scalar RSUExampleScenario.node[20].veinsmobility 	maxSpeed 	13.999992258418
scalar RSUExampleScenario.node[20].veinsmobility 	totalDistance 	2442.1192285406
scalar RSUExampleScenario.node[20].veinsmobility 	totalCO2Emission 	604.31747876026
scalar RSUExampleScenario.node[21].veinsmobility 	startTime 	50.7
scalar RSUExampleScenario.node[21].veinsmobility 	totalTime 	299.3
scalar RSUExampleScenario.node[21].veinsmobility 	stopTime 	350
scalar RSUExampleScenario.node[21].veinsmobility 	minSpeed 	0
scalar RSUExampleScenario.node[21].veinsmobility 	maxSpeed 	13.999893133799
scalar RSUExampleScenario.node[21].veinsmobility 	totalDistance 	2403.8990768732
scalar RSUExampleScenario.node[21].veinsmobility 	totalCO2Emission 	597.20878604221
scalar RSUExampleScenario.node[22].veinsmobility 	startTime 	53.1
scalar RSUExampleScenario.node[22].veinsmobility 	totalTime 	296.9
scalar RSUExampleScenario.node[22].veinsmobility 	stopTime 	350
scalar RSUExampleScenario.node[22].veinsmobility 	minSpeed 	0
scalar RSUExampleScenario.node[22].veinsmobility 	maxSpeed 	13.999949144702
scalar RSUExampleScenario.node[22].veinsmobility 	totalDistance 	2374.4582571709
scalar RSUExampleScenario.node[22].veinsmobility 	totalCO2Emission 	592.55730921234
scalar RSUExampleScenario.node[23].veinsmobility 	startTime 	55.5
scalar RSUExampleScenario.node[23].veinsmobility 	totalTime 	294.5
scalar RSUExampleScenario.node[23].veinsmobility 	stopTime 	350
scalar RSUExampleScenario.node[23].veinsmobility 	minSpeed 	0
scalar RSUExampleScenario.node[23].veinsmobility 	maxSpeed 	13.999878356061
scalar RSUExampleScenario.node[23].veinsmobility 	totalDistance 	2335.30270696
scalar RSUExampleScenario.node[23].veinsmobility 	totalCO2Emission 	586.79839385536
scalar RSUExampleScenario.node[24].veinsmobility 	startTime 	57.9
scalar RSUExampleScenario.node[24].veinsmobility 	totalTime 	292.1
scalar RSUExampleScenario.node[24].veinsmobility 	stopTime 	350
scalar RSUExampleScenario.node[24].veinsmobility 	minSpeed 	0
scalar RSUExampleScenario.node[24].veinsmobility 	maxSpeed 	13.999792334572
scalar RSUExampleScenario.node[24].veinsmobility 	totalDistance 	2306.4292060091
scalar RSUExampleScenario.node[24].veinsmobility 	totalCO2Emission 	578.56593856373
scalar RSUExampleScenario.node[25].veinsmobility 	startTime 	60.3
scalar RSUExampleScenario.node[25].veinsmobility 	totalTime 	289.7
scalar RSUExampleScenario.node[25].veinsmobility 	stopTime 	350
scalar RSUExampleScenario.node[25].veinsmobility 	minSpeed 	0
scalar RSUExampleScenario.node[25].veinsmobility 	maxSpeed 	13.999998899123
scalar RSUExampleScenario.node[25].veinsmobility 	totalDistance 	2268.4625341774
scalar RSUExampleScenario.node[25].veinsmobility 	totalCO2Emission 	573.53410230097
scalar RSUExampleScenario.node[26].veinsmobility 	startTime 	62.7
scalar RSUExampleScenario.node[26].veinsmobility 	totalTime 	287.3
scalar RSUExampleScenario.node[26].veinsmobility 	stopTime 	350
scalar RSUExampleScenario.node[26].veinsmobility 	minSpeed 	0
scalar RSUExampleScenario.node[26].veinsmobility 	maxSpeed 	13.999943809486
scalar RSUExampleScenario.node[26].veinsmobility 	totalDistance 	2237.4048553746
scalar RSUExampleScenario.node[26].veinsmobility 	totalCO2Emission 	567.45633110628
scalar RSUExampleScenario.node[27].veinsmobility 	startTime 	65.1
scalar RSUExampleScenario.node[27].veinsmobility 	totalTime 	284.9
scalar RSUExampleScenario.node[27].veinsmobility 	stopTime 	350
scalar RSUExampleScenario.node[27].veinsmobility 	minSpeed 	0
scalar RSUExampleScenario.node[27].veinsmobility 	maxSpeed 	13.999806699092
scalar RSUExampleScenario.node[27].veinsmobility 	totalDistance 	2200.5629394891
scalar RSUExampleScenario.node[27].veinsmobility 	totalCO2Emission 	562.10135172544
scalar RSUExampleScenario.node[28].veinsmobility 	startTime 	67.5
scalar RSUExampleScenario.node[28].veinsmobility 	totalTime 	282.5
scalar RSUExampleScenario.node[28].veinsmobility 	stopTime 	350
scalar RSUExampleScenario.node[28].veinsmobility 	minSpeed 	0
scalar RSUExampleScenario.node[28].veinsmobility 	maxSpeed 	13.999998688216
scalar RSUExampleScenario.node[28].veinsmobility 	totalDistance 	2169.5564576041
scalar RSUExampleScenario.node[28].veinsmobility 	totalCO2Emission 	556.54364939664
scalar RSUExampleScenario.node[29].veinsmobility 	startTime 	69.9
scalar RSUExampleScenario.node[29].veinsmobility 	totalTime 	280.1
scalar RSUExampleScenario.node[29].veinsmobility 	stopTime 	350
scalar RSUExampleScenario.node[29].veinsmobility 	minSpeed 	0
scalar RSUExampleScenario.node[29].veinsmobility 	maxSpeed 	13.99970758334
scalar RSUExampleScenario.node[29].veinsmobility 	totalDistance 	2133.2947514481
scalar RSUExampleScenario.node[29].veinsmobility 	totalCO2Emission 	554.31274176964
scalar RSUExampleScenario.node[3].veinsmobility 	startTime 	7.3
scalar RSUExampleScenario.node[3].veinsmobility 	totalTime 	342.7
scalar RSUExampleScenario.node[3].veinsmobility 	stopTime 	350
scalar RSUExampleScenario.node[3].veinsmobility 	minSpeed 	0
scalar RSUExampleScenario.node[3].veinsmobility 	maxSpeed 	13.999937713665
scalar RSUExampleScenario.node[3].veinsmobility 	totalDistance 	2990.8035052152
scalar RSUExampleScenario.node[3].veinsmobility 	totalCO2Emission 	719.14703933685
scalar RSUExampleScenario.node[30].veinsmobility 	startTime 	72.4
scalar RSUExampleScenario.node[30].veinsmobility 	totalTime 	277.6
scalar RSUExampleScenario.node[30].veinsmobility 	stopTime 	350
scalar RSUExampleScenario.node[30].veinsmobility 	minSpeed 	0
scalar RSUExampleScenario.node[30].veinsmobility 	maxSpeed 	13.999912600622
scalar RSUExampleScenario.node[30].veinsmobility 	totalDistance 	2101.2949191456
scalar RSUExampleScenario.node[30].veinsmobility 	totalCO2Emission 	545.54400405089
scalar RSUExampleScenario.node[31].veinsmobility 	startTime 	74.8
scalar RSUExampleScenario.node[31].veinsmobility 	totalTime 	275.2
scalar RSUExampleScenario.node[31].veinsmobility 	stopTime 	350
scalar RSUExampleScenario.node[31].veinsmobility 	minSpeed 	0
scalar RSUExampleScenario.node[31].veinsmobility 	maxSpeed 	13.99997375672
scalar RSUExampleScenario.node[31].veinsmobility 	totalDistance 	2065.6371291877
scalar RSUExampleScenario.node[31].veinsmobility 	totalCO2Emission 	539.36205233779
scalar RSUExampleScenario.node[32].veinsmobility 	startTime 	77.2
scalar RSUExampleScenario.node[32].veinsmobility 	totalTime 	272.8
scalar RSUExampleScenario.node[32].veinsmobility 	stopTime 	350
scalar RSUExampleScenario.node[32].veinsmobility 	minSpeed 	0
scalar RSUExampleScenario.node[32].veinsmobility 	maxSpeed 	13.999873532555
scalar RSUExampleScenario.node[32].veinsmobility 	totalDistance 	2031.5075193175
scalar RSUExampleScenario.node[32].veinsmobility 	totalCO2Emission 	534.55993980415
scalar RSUExampleScenario.node[33].veinsmobility 	startTime 	79.6
scalar RSUExampleScenario.node[33].veinsmobility 	totalTime 	270.4
scalar RSUExampleScenario.node[33].veinsmobility 	stopTime 	350
scalar RSUExampleScenario.node[33].veinsmobility 	minSpeed 	0
scalar RSUExampleScenario.node[33].veinsmobility 	maxSpeed 	13.999857165567
scalar RSUExampleScenario.node[33].veinsmobility 	totalDistance 	1997.3470681858
scalar RSUExampleScenario.node[33].veinsmobility 	totalCO2Emission 	532.15329753276
scalar RSUExampleScenario.node[34].veinsmobility 	startTime 	82
scalar RSUExampleScenario.node[34].veinsmobility 	totalTime 	268
scalar RSUExampleScenario.node[34].veinsmobility 	stopTime 	350
scalar RSUExampleScenario.node[34].veinsmobility 	minSpeed 	0
scalar RSUExampleScenario.node[34].veinsmobility 	maxSpeed 	13.999978466146
scalar RSUExampleScenario.node[34].veinsmobility 	totalDistance 	1964.6870542413
scalar RSUExampleScenario.node[34].veinsmobility 	totalCO2Emission 	524.79956945721
scalar RSUExampleScenario.node[35].veinsmobility 	startTime 	84.4
scalar RSUExampleScenario.node[35].veinsmobility 	totalTime 	265.6
scalar RSUExampleScenario.node[35].veinsmobility 	stopTime 	350
scalar RSUExampleScenario.node[35].veinsmobility 	minSpeed 	0
scalar RSUExampleScenario.node[35].veinsmobility 	maxSpeed 	13.999994121261
scalar RSUExampleScenario.node[35].veinsmobility 	totalDistance 	1930.4177748403
scalar RSUExampleScenario.node[35].veinsmobility 	totalCO2Emission 	516.33080984031
scalar RSUExampleScenario.node[36].veinsmobility 	startTime 	86.8
scalar RSUExampleScenario.node[36].veinsmobility 	totalTime 	263.2
scalar RSUExampleScenario.node[36].veinsmobility 	stopTime 	350
scalar RSUExampleScenario.node[36].veinsmobility 	minSpeed 	0
scalar RSUExampleScenario.node[36].veinsmobility 	maxSpeed 	13.999759073358
scalar RSUExampleScenario.node[36].veinsmobility 	totalDistance 	1898.3890559936
scalar RSUExampleScenario.node[36].veinsmobility 	totalCO2Emission 	513.64223314668
scalar RSUExampleScenario.node[37].veinsmobility 	startTime 	89.2
scalar RSUExampleScenario.node[37].veinsmobility 	totalTime 	260.8
scalar RSUExampleScenario.node[37].veinsmobility 	stopTime 	350
scalar RSUExampleScenario.node[37].veinsmobility 	minSpeed 	0
scalar RSUExampleScenario.node[37].veinsmobility 	maxSpeed 	13.999747088538
scalar RSUExampleScenario.node[37].veinsmobility 	totalDistance 	1864.7674521914
scalar RSUExampleScenario.node[37].veinsmobility 	totalCO2Emission 	507.41514475145
scalar RSUExampleScenario.node[38].veinsmobility 	startTime 	91.6
scalar RSUExampleScenario.node[38].veinsmobility 	totalTime 	258.4
scalar RSUExampleScenario.node[38].veinsmobility 	stopTime 	350
scalar RSUExampleScenario.node[38].veinsmobility 	minSpeed 	0
scalar RSUExampleScenario.node[38].veinsmobility 	maxSpeed 	13.999749327067
scalar RSUExampleScenario.node[38].veinsmobility 	totalDistance 	1830.7406731219
scalar RSUExampleScenario.node[38].veinsmobility 	totalCO2Emission 	500.06160937535
scalar RSUExampleScenario.node[39].veinsmobility 	startTime 	94
scalar RSUExampleScenario.node[39].veinsmobility 	totalTime 	256
scalar RSUExampleScenario.node[39].veinsmobility 	stopTime 	350
scalar RSUExampleScenario.node[39].veinsmobility 	minSpeed 	0
scalar RSUExampleScenario.node[39].veinsmobility 	maxSpeed 	13.999981918482
scalar RSUExampleScenario.node[39].veinsmobility 	totalDistance 	1797.7832672265
scalar RSUExampleScenario.node[39].veinsmobility 	totalCO2Emission 	497.70053520661
scalar RSUExampleScenario.node[4].veinsmobility 	startTime 	9.7
scalar RSUExampleScenario.node[4].veinsmobility 	totalTime 	340.3
scalar RSUExampleScenario.node[4].veinsmobility 	stopTime 	350
scalar RSUExampleScenario.node[4].veinsmobility 	minSpeed 	0
scalar RSUExampleScenario.node[4].veinsmobility 	maxSpeed 	13.999954319559
scalar RSUExampleScenario.node[4].veinsmobility 	totalDistance 	2947.8891701039
scalar RSUExampleScenario.node[4].veinsmobility 	totalCO2Emission 	697.13429263354
scalar RSUExampleScenario.node[40].veinsmobility 	startTime 	96.5
scalar RSUExampleScenario.node[40].veinsmobility 	totalTime 	253.5
scalar RSUExampleScenario.node[40].veinsmobility 	stopTime 	350
scalar RSUExampleScenario.node[40].veinsmobility 	minSpeed 	0
scalar RSUExampleScenario.node[40].veinsmobility 	maxSpeed 	13.999967792535
scalar RSUExampleScenario.node[40].veinsmobility 	totalDistance 	1763.0881515641
scalar RSUExampleScenario.node[40].veinsmobility 	totalCO2Emission 	488.70953881282
scalar RSUExampleScenario.node[41].veinsmobility 	startTime 	98.9
scalar RSUExampleScenario.node[41].veinsmobility 	totalTime 	251.1
scalar RSUExampleScenario.node[41].veinsmobility 	stopTime 	350
scalar RSUExampleScenario.node[41].veinsmobility 	minSpeed 	0
scalar RSUExampleScenario.node[41].veinsmobility 	maxSpeed 	13.999880094533
scalar RSUExampleScenario.node[41].veinsmobility 	totalDistance 	1731.0556940897
scalar RSUExampleScenario.node[41].veinsmobility 	totalCO2Emission 	484.02902729651
scalar RSUExampleScenario.node[42].veinsmobility 	startTime 	101.3
scalar RSUExampleScenario.node[42].veinsmobility 	totalTime 	248.7
scalar RSUExampleScenario.node[42].veinsmobility 	stopTime 	350
scalar RSUExampleScenario.node[42].veinsmobility 	minSpeed 	0
scalar RSUExampleScenario.node[42].veinsmobility 	maxSpeed 	13.999594209038
scalar RSUExampleScenario.node[42].veinsmobility 	totalDistance 	1696.0155991254
scalar RSUExampleScenario.node[42].veinsmobility 	totalCO2Emission 	478.05890556116
scalar RSUExampleScenario.node[43].veinsmobility 	startTime 	103.7
scalar RSUExampleScenario.node[43].veinsmobility 	totalTime 	246.3
scalar RSUExampleScenario.node[43].veinsmobility 	stopTime 	350
scalar RSUExampleScenario.node[43].veinsmobility 	minSpeed 	0
scalar RSUExampleScenario.node[43].veinsmobility 	maxSpeed 	13.999805543188
scalar RSUExampleScenario.node[43].veinsmobility 	totalDistance 	1661.6900366371
scalar RSUExampleScenario.node[43].veinsmobility 	totalCO2Emission 	470.21550005618
scalar RSUExampleScenario.node[44].veinsmobility 	startTime 	106.1
scalar RSUExampleScenario.node[44].veinsmobility 	totalTime 	243.9
scalar RSUExampleScenario.node[44].veinsmobility 	stopTime 	350
scalar RSUExampleScenario.node[44].veinsmobility 	minSpeed 	0
scalar RSUExampleScenario.node[44].veinsmobility 	maxSpeed 	13.999845799303
scalar RSUExampleScenario.node[44].veinsmobility 	totalDistance 	1628.6239393457
scalar RSUExampleScenario.node[44].veinsmobility 	totalCO2Emission 	468.35546914822
scalar RSUExampleScenario.node[45].veinsmobility 	startTime 	108.5
scalar RSUExampleScenario.node[45].veinsmobility 	totalTime 	241.5
scalar RSUExampleScenario.node[45].veinsmobility 	stopTime 	350
scalar RSUExampleScenario.node[45].veinsmobility 	minSpeed 	0
scalar RSUExampleScenario.node[45].veinsmobility 	maxSpeed 	13.999916908573
scalar RSUExampleScenario.node[45].veinsmobility 	totalDistance 	1595.8043539844
scalar RSUExampleScenario.node[45].veinsmobility 	totalCO2Emission 	460.85522180723
scalar RSUExampleScenario.node[46].veinsmobility 	startTime 	110.9
scalar RSUExampleScenario.node[46].veinsmobility 	totalTime 	239.1
scalar RSUExampleScenario.node[46].veinsmobility 	stopTime 	350
scalar RSUExampleScenario.node[46].veinsmobility 	minSpeed 	0
scalar RSUExampleScenario.node[46].veinsmobility 	maxSpeed 	13.999773383939
scalar RSUExampleScenario.node[46].veinsmobility 	totalDistance 	1561.6713132918
scalar RSUExampleScenario.node[46].veinsmobility 	totalCO2Emission 	457.25399605867
scalar RSUExampleScenario.node[47].veinsmobility 	startTime 	113.3
scalar RSUExampleScenario.node[47].veinsmobility 	totalTime 	236.7
scalar RSUExampleScenario.node[47].veinsmobility 	stopTime 	350
scalar RSUExampleScenario.node[47].veinsmobility 	minSpeed 	0
scalar RSUExampleScenario.node[47].veinsmobility 	maxSpeed 	13.999992963541
scalar RSUExampleScenario.node[47].veinsmobility 	totalDistance 	1528.3435483732
scalar RSUExampleScenario.node[47].veinsmobility 	totalCO2Emission 	449.64107292753
scalar RSUExampleScenario.node[48].veinsmobility 	startTime 	115.7
scalar RSUExampleScenario.node[48].veinsmobility 	totalTime 	234.3
scalar RSUExampleScenario.node[48].veinsmobility 	stopTime 	350
scalar RSUExampleScenario.node[48].veinsmobility 	minSpeed 	0
scalar RSUExampleScenario.node[48].veinsmobility 	maxSpeed 	13.999665965771
scalar RSUExampleScenario.node[48].veinsmobility 	totalDistance 	1491.924818779
scalar RSUExampleScenario.node[48].veinsmobility 	totalCO2Emission 	444.50202245496
scalar RSUExampleScenario.node[49].veinsmobility 	startTime 	118.1
scalar RSUExampleScenario.node[49].veinsmobility 	totalTime 	231.9
scalar RSUExampleScenario.node[49].veinsmobility 	stopTime 	350
scalar RSUExampleScenario.node[49].veinsmobility 	minSpeed 	0
scalar RSUExampleScenario.node[49].veinsmobility 	maxSpeed 	13.999913075436
scalar RSUExampleScenario.node[49].veinsmobility 	totalDistance 	1460.6186953272
scalar RSUExampleScenario.node[49].veinsmobility 	totalCO2Emission 	440.11470364363
scalar RSUExampleScenario.node[5].veinsmobility 	startTime 	12.1
scalar RSUExampleScenario.node[5].veinsmobility 	totalTime 	337.9
scalar RSUExampleScenario.node[5].veinsmobility 	stopTime 	350
scalar RSUExampleScenario.node[5].veinsmobility 	minSpeed 	0
scalar RSUExampleScenario.node[5].veinsmobility 	maxSpeed 	13.999880551489
scalar RSUExampleScenario.node[5].veinsmobility 	totalDistance 	2913.1069297501
scalar RSUExampleScenario.node[5].veinsmobility 	totalCO2Emission 	686.66134525292
scalar RSUExampleScenario.node[50].veinsmobility 	startTime 	120.6
scalar RSUExampleScenario.node[50].veinsmobility 	totalTime 	229.4
scalar RSUExampleScenario.node[50].veinsmobility 	stopTime 	350
scalar RSUExampleScenario.node[50].veinsmobility 	minSpeed 	0
scalar RSUExampleScenario.node[50].veinsmobility 	maxSpeed 	13.999509770838
scalar RSUExampleScenario.node[50].veinsmobility 	totalDistance 	1426.6940542029
scalar RSUExampleScenario.node[50].veinsmobility 	totalCO2Emission 	432.55937019932
scalar RSUExampleScenario.node[51].veinsmobility 	startTime 	123
scalar RSUExampleScenario.node[51].veinsmobility 	totalTime 	227
scalar RSUExampleScenario.node[51].veinsmobility 	stopTime 	350
scalar RSUExampleScenario.node[51].veinsmobility 	minSpeed 	0
scalar RSUExampleScenario.node[51].veinsmobility 	maxSpeed 	13.999861470098
scalar RSUExampleScenario.node[51].veinsmobility 	totalDistance 	1393.4421574281
scalar RSUExampleScenario.node[51].veinsmobility 	totalCO2Emission 	429.11393748474
scalar RSUExampleScenario.node[52].veinsmobility 	startTime 	125.4
scalar RSUExampleScenario.node[52].veinsmobility 	totalTime 	224.6
scalar RSUExampleScenario.node[52].veinsmobility 	stopTime 	350
scalar RSUExampleScenario.node[52].veinsmobility 	minSpeed 	0
scalar RSUExampleScenario.node[52].veinsmobility 	maxSpeed 	13.999969048142
scalar RSUExampleScenario.node[52].veinsmobility 	totalDistance 	1360.0828292178
scalar RSUExampleScenario.node[52].veinsmobility 	totalCO2Emission 	423.41483814168
scalar RSUExampleScenario.node[53].veinsmobility 	startTime 	127.8
scalar RSUExampleScenario.node[53].veinsmobility 	totalTime 	222.2
scalar RSUExampleScenario.node[53].veinsmobility 	stopTime 	350
scalar RSUExampleScenario.node[53].veinsmobility 	minSpeed 	0
scalar RSUExampleScenario.node[53].veinsmobility 	maxSpeed 	13.999645545839
scalar RSUExampleScenario.node[53].veinsmobility 	totalDistance 	1325.9585061832
scalar RSUExampleScenario.node[53].veinsmobility 	totalCO2Emission 	418.22592937757
scalar RSUExampleScenario.node[54].veinsmobility 	startTime 	130.2
scalar RSUExampleScenario.node[54].veinsmobility 	totalTime 	219.8
scalar RSUExampleScenario.node[54].veinsmobility 	stopTime 	350
scalar RSUExampleScenario.node[54].veinsmobility 	minSpeed 	0
scalar RSUExampleScenario.node[54].veinsmobility 	maxSpeed 	13.999988044298
scalar RSUExampleScenario.node[54].veinsmobility 	totalDistance 	1293.3817503295
scalar RSUExampleScenario.node[54].veinsmobility 	totalCO2Emission 	411.96087129619
scalar RSUExampleScenario.node[55].veinsmobility 	startTime 	132.6
scalar RSUExampleScenario.node[55].veinsmobility 	totalTime 	217.4
scalar RSUExampleScenario.node[55].veinsmobility 	stopTime 	350
scalar RSUExampleScenario.node[55].veinsmobility 	minSpeed 	0
scalar RSUExampleScenario.node[55].veinsmobility 	maxSpeed 	13.999896251976
scalar RSUExampleScenario.node[55].veinsmobility 	totalDistance 	1259.7369976859
scalar RSUExampleScenario.node[55].veinsmobility 	totalCO2Emission 	404.17329368755
scalar RSUExampleScenario.node[56].veinsmobility 	startTime 	135
scalar RSUExampleScenario.node[56].veinsmobility 	totalTime 	215
scalar RSUExampleScenario.node[56].veinsmobility 	stopTime 	350
scalar RSUExampleScenario.node[56].veinsmobility 	minSpeed 	0
scalar RSUExampleScenario.node[56].veinsmobility 	maxSpeed 	13.999978594603
scalar RSUExampleScenario.node[56].veinsmobility 	totalDistance 	1225.847076107
scalar RSUExampleScenario.node[56].veinsmobility 	totalCO2Emission 	397.74447884771
scalar RSUExampleScenario.node[57].veinsmobility 	startTime 	137.4
scalar RSUExampleScenario.node[57].veinsmobility 	totalTime 	212.6
scalar RSUExampleScenario.node[57].veinsmobility 	stopTime 	350
scalar RSUExampleScenario.node[57].veinsmobility 	minSpeed 	0
scalar RSUExampleScenario.node[57].veinsmobility 	maxSpeed 	13.999872121371
scalar RSUExampleScenario.node[57].veinsmobility 	totalDistance 	1193.4746051757
scalar RSUExampleScenario.node[57].veinsmobility 	totalCO2Emission 	393.79637718716
scalar RSUExampleScenario.node[58].veinsmobility 	startTime 	139.8
scalar RSUExampleScenario.node[58].veinsmobility 	totalTime 	210.2
scalar RSUExampleScenario.node[58].veinsmobility 	stopTime 	350
scalar RSUExampleScenario.node[58].veinsmobility 	minSpeed 	0
scalar RSUExampleScenario.node[58].veinsmobility 	maxSpeed 	13.99983121525
scalar RSUExampleScenario.node[58].veinsmobility 	totalDistance 	1158.8701500792
scalar RSUExampleScenario.node[58].veinsmobility 	totalCO2Emission 	388.70402443753
scalar RSUExampleScenario.node[59].veinsmobility 	startTime 	142.2
scalar RSUExampleScenario.node[59].veinsmobility 	totalTime 	207.8
scalar RSUExampleScenario.node[59].veinsmobility 	stopTime 	350
scalar RSUExampleScenario.node[59].veinsmobility 	minSpeed 	0
scalar RSUExampleScenario.node[59].veinsmobility 	maxSpeed 	13.999966521279
scalar RSUExampleScenario.node[59].veinsmobility 	totalDistance 	1124.85869682
scalar RSUExampleScenario.node[59].veinsmobility 	totalCO2Emission 	380.91437585045
scalar RSUExampleScenario.node[6].veinsmobility 	startTime 	14.5
scalar RSUExampleScenario.node[6].veinsmobility 	totalTime 	335.5
scalar RSUExampleScenario.node[6].veinsmobility 	stopTime 	350
scalar RSUExampleScenario.node[6].veinsmobility 	minSpeed 	0
scalar RSUExampleScenario.node[6].veinsmobility 	maxSpeed 	13.999924566282
scalar RSUExampleScenario.node[6].veinsmobility 	totalDistance 	2904.9198351227
scalar RSUExampleScenario.node[6].veinsmobility 	totalCO2Emission 	680.82249106836
scalar RSUExampleScenario.node[60].veinsmobility 	startTime 	144.7
scalar RSUExampleScenario.node[60].veinsmobility 	totalTime 	205.3
scalar RSUExampleScenario.node[60].veinsmobility 	stopTime 	350
scalar RSUExampleScenario.node[60].veinsmobility 	minSpeed 	0
scalar RSUExampleScenario.node[60].veinsmobility 	maxSpeed 	13.999888456669
scalar RSUExampleScenario.node[60].veinsmobility 	totalDistance 	1092.0306850458
scalar RSUExampleScenario.node[60].veinsmobility 	totalCO2Emission 	376.51633964545
scalar RSUExampleScenario.node[61].veinsmobility 	startTime 	147.1
scalar RSUExampleScenario.node[61].veinsmobility 	totalTime 	202.9
scalar RSUExampleScenario.node[61].veinsmobility 	stopTime 	350
scalar RSUExampleScenario.node[61].veinsmobility 	minSpeed 	0
scalar RSUExampleScenario.node[61].veinsmobility 	maxSpeed 	13.999479024711
scalar RSUExampleScenario.node[61].veinsmobility 	totalDistance 	1058.9241572597
scalar RSUExampleScenario.node[61].veinsmobility 	totalCO2Emission 	369.80109889788
scalar RSUExampleScenario.node[62].veinsmobility 	startTime 	149.5
scalar RSUExampleScenario.node[62].veinsmobility 	totalTime 	200.5
scalar RSUExampleScenario.node[62].veinsmobility 	stopTime 	350
scalar RSUExampleScenario.node[62].veinsmobility 	minSpeed 	0
scalar RSUExampleScenario.node[62].veinsmobility 	maxSpeed 	13.999725204119
scalar RSUExampleScenario.node[62].veinsmobility 	totalDistance 	1025.7396759804
scalar RSUExampleScenario.node[62].veinsmobility 	totalCO2Emission 	365.05891813381
scalar RSUExampleScenario.node[63].veinsmobility 	startTime 	151.9
scalar RSUExampleScenario.node[63].veinsmobility 	totalTime 	198.1
scalar RSUExampleScenario.node[63].veinsmobility 	stopTime 	350
scalar RSUExampleScenario.node[63].veinsmobility 	minSpeed 	0
scalar RSUExampleScenario.node[63].veinsmobility 	maxSpeed 	13.999638909099
scalar RSUExampleScenario.node[63].veinsmobility 	totalDistance 	987.11345255486
scalar RSUExampleScenario.node[63].veinsmobility 	totalCO2Emission 	352.71023579269
scalar RSUExampleScenario.node[64].veinsmobility 	startTime 	154.3
scalar RSUExampleScenario.node[64].veinsmobility 	totalTime 	195.7
scalar RSUExampleScenario.node[64].veinsmobility 	stopTime 	350
scalar RSUExampleScenario.node[64].veinsmobility 	minSpeed 	0
scalar RSUExampleScenario.node[64].veinsmobility 	maxSpeed 	13.999571004694
scalar RSUExampleScenario.node[64].veinsmobility 	totalDistance 	953.5721483376
scalar RSUExampleScenario.node[64].veinsmobility 	totalCO2Emission 	338.42286939458
scalar RSUExampleScenario.node[65].veinsmobility 	startTime 	156.7
scalar RSUExampleScenario.node[65].veinsmobility 	totalTime 	193.3
scalar RSUExampleScenario.node[65].veinsmobility 	stopTime 	350
scalar RSUExampleScenario.node[65].veinsmobility 	minSpeed 	0
scalar RSUExampleScenario.node[65].veinsmobility 	maxSpeed 	13.999922541233
scalar RSUExampleScenario.node[65].veinsmobility 	totalDistance 	940.3787576392
scalar RSUExampleScenario.node[65].veinsmobility 	totalCO2Emission 	331.23686033454
scalar RSUExampleScenario.node[66].veinsmobility 	startTime 	159.1
scalar RSUExampleScenario.node[66].veinsmobility 	totalTime 	190.9
scalar RSUExampleScenario.node[66].veinsmobility 	stopTime 	350
scalar RSUExampleScenario.node[66].veinsmobility 	minSpeed 	0
scalar RSUExampleScenario.node[66].veinsmobility 	maxSpeed 	13.999951358896
scalar RSUExampleScenario.node[66].veinsmobility 	totalDistance 	928.26208746186
scalar RSUExampleScenario.node[66].veinsmobility 	totalCO2Emission 	326.62694052744
scalar RSUExampleScenario.node[67].veinsmobility 	startTime 	161.5
scalar RSUExampleScenario.node[67].veinsmobility 	totalTime 	188.5
scalar RSUExampleScenario.node[67].veinsmobility 	stopTime 	350
scalar RSUExampleScenario.node[67].veinsmobility 	minSpeed 	0
scalar RSUExampleScenario.node[67].veinsmobility 	maxSpeed 	13.999216887658
scalar RSUExampleScenario.node[67].veinsmobility 	totalDistance 	913.12840693793
scalar RSUExampleScenario.node[67].veinsmobility 	totalCO2Emission 	325.45313157107
scalar RSUExampleScenario.node[68].veinsmobility 	startTime 	163.9
scalar RSUExampleScenario.node[68].veinsmobility 	totalTime 	186.1
scalar RSUExampleScenario.node[68].veinsmobility 	stopTime 	350
scalar RSUExampleScenario.node[68].veinsmobility 	minSpeed 	0
scalar RSUExampleScenario.node[68].veinsmobility 	maxSpeed 	13.999952527301
scalar RSUExampleScenario.node[68].veinsmobility 	totalDistance 	893.77062447597
scalar RSUExampleScenario.node[68].veinsmobility 	totalCO2Emission 	323.25996993822
scalar RSUExampleScenario.node[69].veinsmobility 	startTime 	166.3
scalar RSUExampleScenario.node[69].veinsmobility 	totalTime 	183.7
scalar RSUExampleScenario.node[69].veinsmobility 	stopTime 	350
scalar RSUExampleScenario.node[69].veinsmobility 	minSpeed 	0
scalar RSUExampleScenario.node[69].veinsmobility 	maxSpeed 	13.999984899454
scalar RSUExampleScenario.node[69].veinsmobility 	totalDistance 	860.8945728124
scalar RSUExampleScenario.node[69].veinsmobility 	totalCO2Emission 	316.9151339513
scalar RSUExampleScenario.node[7].veinsmobility 	startTime 	16.9
scalar RSUExampleScenario.node[7].veinsmobility 	totalTime 	333.1
scalar RSUExampleScenario.node[7].veinsmobility 	stopTime 	350
scalar RSUExampleScenario.node[7].veinsmobility 	minSpeed 	0
scalar RSUExampleScenario.node[7].veinsmobility 	maxSpeed 	13.999996325588
scalar RSUExampleScenario.node[7].veinsmobility 	totalDistance 	2884.3172822981
scalar RSUExampleScenario.node[7].veinsmobility 	totalCO2Emission 	674.06113116471
scalar RSUExampleScenario.node[70].veinsmobility 	startTime 	168.8
scalar RSUExampleScenario.node[70].veinsmobility 	totalTime 	181.2
scalar RSUExampleScenario.node[70].veinsmobility 	stopTime 	350
scalar RSUExampleScenario.node[70].veinsmobility 	minSpeed 	0
scalar RSUExampleScenario.node[70].veinsmobility 	maxSpeed 	13.999762733544
scalar RSUExampleScenario.node[70].veinsmobility 	totalDistance 	825.91655259691
scalar RSUExampleScenario.node[70].veinsmobility 	totalCO2Emission 	310.89543780296
scalar RSUExampleScenario.node[71].veinsmobility 	startTime 	171.2
scalar RSUExampleScenario.node[71].veinsmobility 	totalTime 	178.8
scalar RSUExampleScenario.node[71].veinsmobility 	stopTime 	350
scalar RSUExampleScenario.node[71].veinsmobility 	minSpeed 	0
scalar RSUExampleScenario.node[71].veinsmobility 	maxSpeed 	13.999450134647
scalar RSUExampleScenario.node[71].veinsmobility 	totalDistance 	791.81338041196
scalar RSUExampleScenario.node[71].veinsmobility 	totalCO2Emission 	304.18025938562
scalar RSUExampleScenario.node[72].veinsmobility 	startTime 	173.6
scalar RSUExampleScenario.node[72].veinsmobility 	totalTime 	176.4
scalar RSUExampleScenario.node[72].veinsmobility 	stopTime 	350
scalar RSUExampleScenario.node[72].veinsmobility 	minSpeed 	0
scalar RSUExampleScenario.node[72].veinsmobility 	maxSpeed 	13.999876883978
scalar RSUExampleScenario.node[72].veinsmobility 	totalDistance 	758.81694772296
scalar RSUExampleScenario.node[72].veinsmobility 	totalCO2Emission 	297.45653809994
scalar RSUExampleScenario.node[73].veinsmobility 	startTime 	176
scalar RSUExampleScenario.node[73].veinsmobility 	totalTime 	174
scalar RSUExampleScenario.node[73].veinsmobility 	stopTime 	350
scalar RSUExampleScenario.node[73].veinsmobility 	minSpeed 	0
scalar RSUExampleScenario.node[73].veinsmobility 	maxSpeed 	13.99992467782
scalar RSUExampleScenario.node[73].veinsmobility 	totalDistance 	724.29808641932
scalar RSUExampleScenario.node[73].veinsmobility 	totalCO2Emission 	294.00641124709
scalar RSUExampleScenario.node[74].veinsmobility 	startTime 	178.4
scalar RSUExampleScenario.node[74].veinsmobility 	totalTime 	171.6
scalar RSUExampleScenario.node[74].veinsmobility 	stopTime 	350
scalar RSUExampleScenario.node[74].veinsmobility 	minSpeed 	0
scalar RSUExampleScenario.node[74].veinsmobility 	maxSpeed 	13.999793572987
scalar RSUExampleScenario.node[74].veinsmobility 	totalDistance 	691.60433795204
scalar RSUExampleScenario.node[74].veinsmobility 	totalCO2Emission 	287.6330413725
scalar RSUExampleScenario.node[75].veinsmobility 	startTime 	180.8
scalar RSUExampleScenario.node[75].veinsmobility 	totalTime 	169.2
scalar RSUExampleScenario.node[75].veinsmobility 	stopTime 	350
scalar RSUExampleScenario.node[75].veinsmobility 	minSpeed 	0
scalar RSUExampleScenario.node[75].veinsmobility 	maxSpeed 	13.999958763747
scalar RSUExampleScenario.node[75].veinsmobility 	totalDistance 	657.76137927563
scalar RSUExampleScenario.node[75].veinsmobility 	totalCO2Emission 	280.560313346
scalar RSUExampleScenario.node[76].veinsmobility 	startTime 	183.2
scalar RSUExampleScenario.node[76].veinsmobility 	totalTime 	166.8
scalar RSUExampleScenario.node[76].veinsmobility 	stopTime 	350
scalar RSUExampleScenario.node[76].veinsmobility 	minSpeed 	0
scalar RSUExampleScenario.node[76].veinsmobility 	maxSpeed 	13.99976492089
scalar RSUExampleScenario.node[76].veinsmobility 	totalDistance 	625.097353591
scalar RSUExampleScenario.node[76].veinsmobility 	totalCO2Emission 	277.81453322501
scalar RSUExampleScenario.node[77].veinsmobility 	startTime 	185.6
scalar RSUExampleScenario.node[77].veinsmobility 	totalTime 	164.4
scalar RSUExampleScenario.node[77].veinsmobility 	stopTime 	350
scalar RSUExampleScenario.node[77].veinsmobility 	minSpeed 	0
scalar RSUExampleScenario.node[77].veinsmobility 	maxSpeed 	13.999943682724
scalar RSUExampleScenario.node[77].veinsmobility 	totalDistance 	591.29449562218
scalar RSUExampleScenario.node[77].veinsmobility 	totalCO2Emission 	271.74046628678
scalar RSUExampleScenario.node[78].veinsmobility 	startTime 	188
scalar RSUExampleScenario.node[78].veinsmobility 	totalTime 	162
scalar RSUExampleScenario.node[78].veinsmobility 	stopTime 	350
scalar RSUExampleScenario.node[78].veinsmobility 	minSpeed 	0
scalar RSUExampleScenario.node[78].veinsmobility 	maxSpeed 	13.999419293811
scalar RSUExampleScenario.node[78].veinsmobility 	totalDistance 	557.30052308869
scalar RSUExampleScenario.node[78].veinsmobility 	totalCO2Emission 	264.96809652624
scalar RSUExampleScenario.node[79].veinsmobility 	startTime 	190.4
scalar RSUExampleScenario.node[79].veinsmobility 	totalTime 	159.6
scalar RSUExampleScenario.node[79].veinsmobility 	stopTime 	350
scalar RSUExampleScenario.node[79].veinsmobility 	minSpeed 	0
scalar RSUExampleScenario.node[79].veinsmobility 	maxSpeed 	13.999462292024
scalar RSUExampleScenario.node[79].veinsmobility 	totalDistance 	523.51254074754
scalar RSUExampleScenario.node[79].veinsmobility 	totalCO2Emission 	260.1966920614
scalar RSUExampleScenario.node[8].veinsmobility 	startTime 	19.3
scalar RSUExampleScenario.node[8].veinsmobility 	totalTime 	330.7
scalar RSUExampleScenario.node[8].veinsmobility 	stopTime 	350
scalar RSUExampleScenario.node[8].veinsmobility 	minSpeed 	0
scalar RSUExampleScenario.node[8].veinsmobility 	maxSpeed 	13.99999274537
scalar RSUExampleScenario.node[8].veinsmobility 	totalDistance 	2860.7107365772
scalar RSUExampleScenario.node[8].veinsmobility 	totalCO2Emission 	671.42011696531
scalar RSUExampleScenario.node[80].veinsmobility 	startTime 	192.9
scalar RSUExampleScenario.node[80].veinsmobility 	totalTime 	157.1
scalar RSUExampleScenario.node[80].veinsmobility 	stopTime 	350
scalar RSUExampleScenario.node[80].veinsmobility 	minSpeed 	0
scalar RSUExampleScenario.node[80].veinsmobility 	maxSpeed 	13.999942175741
scalar RSUExampleScenario.node[80].veinsmobility 	totalDistance 	491.17920016806
scalar RSUExampleScenario.node[80].veinsmobility 	totalCO2Emission 	254.14110135707
scalar RSUExampleScenario.node[81].veinsmobility 	startTime 	195.3
scalar RSUExampleScenario.node[81].veinsmobility 	totalTime 	154.7
scalar RSUExampleScenario.node[81].veinsmobility 	stopTime 	350
scalar RSUExampleScenario.node[81].veinsmobility 	minSpeed 	0
scalar RSUExampleScenario.node[81].veinsmobility 	maxSpeed 	13.999854649873
scalar RSUExampleScenario.node[81].veinsmobility 	totalDistance 	458.59274650729
scalar RSUExampleScenario.node[81].veinsmobility 	totalCO2Emission 	249.39106476418
scalar RSUExampleScenario.node[82].veinsmobility 	startTime 	197.7
scalar RSUExampleScenario.node[82].veinsmobility 	totalTime 	152.3
scalar RSUExampleScenario.node[82].veinsmobility 	stopTime 	350
scalar RSUExampleScenario.node[82].veinsmobility 	minSpeed 	0
scalar RSUExampleScenario.node[82].veinsmobility 	maxSpeed 	13.997937283979
scalar RSUExampleScenario.node[82].veinsmobility 	totalDistance 	424.35105884673
scalar RSUExampleScenario.node[82].veinsmobility 	totalCO2Emission 	243.37634265133
scalar RSUExampleScenario.node[83].veinsmobility 	startTime 	200.1
scalar RSUExampleScenario.node[83].veinsmobility 	totalTime 	149.9
scalar RSUExampleScenario.node[83].veinsmobility 	stopTime 	350
scalar RSUExampleScenario.node[83].veinsmobility 	minSpeed 	0
scalar RSUExampleScenario.node[83].veinsmobility 	maxSpeed 	13.999021193762
scalar RSUExampleScenario.node[83].veinsmobility 	totalDistance 	389.3733318391
scalar RSUExampleScenario.node[83].veinsmobility 	totalCO2Emission 	236.25232803578
scalar RSUExampleScenario.node[84].veinsmobility 	startTime 	202.5
scalar RSUExampleScenario.node[84].veinsmobility 	totalTime 	147.5
scalar RSUExampleScenario.node[84].veinsmobility 	stopTime 	350
scalar RSUExampleScenario.node[84].veinsmobility 	minSpeed 	0
scalar RSUExampleScenario.node[84].veinsmobility 	maxSpeed 	13.998462134448
scalar RSUExampleScenario.node[84].veinsmobility 	totalDistance 	354.91283422966
scalar RSUExampleScenario.node[84].veinsmobility 	totalCO2Emission 	230.38331724595
scalar RSUExampleScenario.node[85].veinsmobility 	startTime 	204.9
scalar RSUExampleScenario.node[85].veinsmobility 	totalTime 	145.1
scalar RSUExampleScenario.node[85].veinsmobility 	stopTime 	350
scalar RSUExampleScenario.node[85].veinsmobility 	minSpeed 	0
scalar RSUExampleScenario.node[85].veinsmobility 	maxSpeed 	13.995270591078
scalar RSUExampleScenario.node[85].veinsmobility 	totalDistance 	322.24727941579
scalar RSUExampleScenario.node[85].veinsmobility 	totalCO2Emission 	224.33011108013
scalar RSUExampleScenario.node[86].veinsmobility 	startTime 	207.3
scalar RSUExampleScenario.node[86].veinsmobility 	totalTime 	142.7
scalar RSUExampleScenario.node[86].veinsmobility 	stopTime 	350
scalar RSUExampleScenario.node[86].veinsmobility 	minSpeed 	0
scalar RSUExampleScenario.node[86].veinsmobility 	maxSpeed 	13.882151533687
scalar RSUExampleScenario.node[86].veinsmobility 	totalDistance 	284.36351916357
scalar RSUExampleScenario.node[86].veinsmobility 	totalCO2Emission 	217.1298031691
scalar RSUExampleScenario.node[87].veinsmobility 	startTime 	209.7
scalar RSUExampleScenario.node[87].veinsmobility 	totalTime 	140.3
scalar RSUExampleScenario.node[87].veinsmobility 	stopTime 	350
scalar RSUExampleScenario.node[87].veinsmobility 	minSpeed 	0
scalar RSUExampleScenario.node[87].veinsmobility 	maxSpeed 	13.821756578032
scalar RSUExampleScenario.node[87].veinsmobility 	totalDistance 	247.40175522252
scalar RSUExampleScenario.node[87].veinsmobility 	totalCO2Emission 	200.79210968014
scalar RSUExampleScenario.node[88].veinsmobility 	startTime 	212.1
scalar RSUExampleScenario.node[88].veinsmobility 	totalTime 	137.9
scalar RSUExampleScenario.node[88].veinsmobility 	stopTime 	350
scalar RSUExampleScenario.node[88].veinsmobility 	minSpeed 	0
scalar RSUExampleScenario.node[88].veinsmobility 	maxSpeed 	13.712551973544
scalar RSUExampleScenario.node[88].veinsmobility 	totalDistance 	225.49037862957
scalar RSUExampleScenario.node[88].veinsmobility 	totalCO2Emission 	189.58161316793
scalar RSUExampleScenario.node[89].veinsmobility 	startTime 	214.5
scalar RSUExampleScenario.node[89].veinsmobility 	totalTime 	135.5
scalar RSUExampleScenario.node[89].veinsmobility 	stopTime 	350
scalar RSUExampleScenario.node[89].veinsmobility 	minSpeed 	0
scalar RSUExampleScenario.node[89].veinsmobility 	maxSpeed 	13.874054859192
scalar RSUExampleScenario.node[89].veinsmobility 	totalDistance 	214.93745062432
scalar RSUExampleScenario.node[89].veinsmobility 	totalCO2Emission 	185.64001986403
scalar RSUExampleScenario.node[9].veinsmobility 	startTime 	21.7
scalar RSUExampleScenario.node[9].veinsmobility 	totalTime 	328.3
scalar RSUExampleScenario.node[9].veinsmobility 	stopTime 	350
scalar RSUExampleScenario.node[9].veinsmobility 	minSpeed 	0
scalar RSUExampleScenario.node[9].veinsmobility 	maxSpeed 	13.999995050519
scalar RSUExampleScenario.node[9].veinsmobility 	totalDistance 	2822.8755850007
scalar RSUExampleScenario.node[9].veinsmobility 	totalCO2Emission 	665.96777820569
scalar RSUExampleScenario.node[90].veinsmobility 	startTime 	217
scalar RSUExampleScenario.node[90].veinsmobility 	totalTime 	133
scalar RSUExampleScenario.node[90].veinsmobility 	stopTime 	350
scalar RSUExampleScenario.node[90].veinsmobility 	minSpeed 	0
scalar RSUExampleScenario.node[90].veinsmobility 	maxSpeed 	13.876574098493
scalar RSUExampleScenario.node[90].veinsmobility 	totalDistance 	201.84246140491
scalar RSUExampleScenario.node[90].veinsmobility 	totalCO2Emission 	182.64077150416
scalar RSUExampleScenario.node[91].veinsmobility 	startTime 	219.4
scalar RSUExampleScenario.node[91].veinsmobility 	totalTime 	130.6
scalar RSUExampleScenario.node[91].veinsmobility 	stopTime 	350
scalar RSUExampleScenario.node[91].veinsmobility 	minSpeed 	0
scalar RSUExampleScenario.node[91].veinsmobility 	maxSpeed 	13.827673475213
scalar RSUExampleScenario.node[91].veinsmobility 	totalDistance 	185.08306730044
scalar RSUExampleScenario.node[91].veinsmobility 	totalCO2Emission 	180.50406646716
scalar RSUExampleScenario.node[92].veinsmobility 	startTime 	221.8
scalar RSUExampleScenario.node[92].veinsmobility 	totalTime 	128.2
scalar RSUExampleScenario.node[92].veinsmobility 	stopTime 	350
scalar RSUExampleScenario.node[92].veinsmobility 	minSpeed 	0
scalar RSUExampleScenario.node[92].veinsmobility 	maxSpeed 	13.8691562306
scalar RSUExampleScenario.node[92].veinsmobility 	totalDistance 	150.69952699721
scalar RSUExampleScenario.node[92].veinsmobility 	totalCO2Emission 	166.89886329814
scalar RSUExampleScenario.node[93].veinsmobility 	startTime 	224.2
scalar RSUExampleScenario.node[93].veinsmobility 	totalTime 	125.8
scalar RSUExampleScenario.node[93].veinsmobility 	stopTime 	350
scalar RSUExampleScenario.node[93].veinsmobility 	minSpeed 	0
scalar RSUExampleScenario.node[93].veinsmobility 	maxSpeed 	13.851801446552
scalar RSUExampleScenario.node[93].veinsmobility 	totalDistance 	123.77487631288
scalar RSUExampleScenario.node[93].veinsmobility 	totalCO2Emission 	154.5954087241
scalar RSUExampleScenario.node[94].veinsmobility 	startTime 	226.6
scalar RSUExampleScenario.node[94].veinsmobility 	totalTime 	123.4
scalar RSUExampleScenario.node[94].veinsmobility 	stopTime 	350
scalar RSUExampleScenario.node[94].veinsmobility 	minSpeed 	0
scalar RSUExampleScenario.node[94].veinsmobility 	maxSpeed 	13.886830658347
scalar RSUExampleScenario.node[94].veinsmobility 	totalDistance 	112.38164550794
scalar RSUExampleScenario.node[94].veinsmobility 	totalCO2Emission 	148.50979320832
scalar RSUExampleScenario.node[95].veinsmobility 	startTime 	229
scalar RSUExampleScenario.node[95].veinsmobility 	totalTime 	121
scalar RSUExampleScenario.node[95].veinsmobility 	stopTime 	350
scalar RSUExampleScenario.node[95].veinsmobility 	minSpeed 	0
scalar RSUExampleScenario.node[95].veinsmobility 	maxSpeed 	13.781059611451
scalar RSUExampleScenario.node[95].veinsmobility 	totalDistance 	99.444069595095
scalar RSUExampleScenario.node[95].veinsmobility 	totalCO2Emission 	144.92625036517
scalar RSUExampleScenario.node[96].veinsmobility 	startTime 	231.4
scalar RSUExampleScenario.node[96].veinsmobility 	totalTime 	118.6
scalar RSUExampleScenario.node[96].veinsmobility 	stopTime 	350
scalar RSUExampleScenario.node[96].veinsmobility 	minSpeed 	0
scalar RSUExampleScenario.node[96].veinsmobility 	maxSpeed 	13.80634338611
scalar RSUExampleScenario.node[96].veinsmobility 	totalDistance 	83.488579579875
scalar RSUExampleScenario.node[96].veinsmobility 	totalCO2Emission 	142.43022387649
scalar RSUExampleScenario.node[97].veinsmobility 	startTime 	233.8
scalar RSUExampleScenario.node[97].veinsmobility 	totalTime 	116.2
scalar RSUExampleScenario.node[97].veinsmobility 	stopTime 	350
scalar RSUExampleScenario.node[97].veinsmobility 	minSpeed 	0
scalar RSUExampleScenario.node[97].veinsmobility 	maxSpeed 	12.237605890661
scalar RSUExampleScenario.node[97].veinsmobility 	totalDistance 	55.949768136076
scalar RSUExampleScenario.node[97].veinsmobility 	totalCO2Emission 	134.34277006512
scalar RSUExampleScenario.node[98].veinsmobility 	startTime 	236.2
scalar RSUExampleScenario.node[98].veinsmobility 	totalTime 	113.8
scalar RSUExampleScenario.node[98].veinsmobility 	stopTime 	350
scalar RSUExampleScenario.node[98].veinsmobility 	minSpeed 	0
scalar RSUExampleScenario.node[98].veinsmobility 	maxSpeed 	7.3146707440964
scalar RSUExampleScenario.node[98].veinsmobility 	totalDistance 	20.446044813268
scalar RSUExampleScenario.node[98].veinsmobility 	totalCO2Emission 	118.49979886683
scalar RSUExampleScenario.node[99].veinsmobility 	startTime 	238.6
scalar RSUExampleScenario.node[99].veinsmobility 	totalTime 	111.4
scalar RSUExampleScenario.node[99].veinsmobility 	stopTime 	350
scalar RSUExampleScenario.node[99].veinsmobility 	minSpeed 	0
scalar RSUExampleScenario.node[99].veinsmobility 	maxSpeed 	3.0193122605601
scalar RSUExampleScenario.node[99].veinsmobility 	totalDistance 	3.2512828973887
scalar RSUExampleScenario.node[99].veinsmobility 	totalCO2Emission 	109.75180377046
