version 2
run statisticRVV-49-20150327-02:04:11-12488
attr c 10
attr configname statisticRVV
attr datetime 20150327-02:04:11
attr experiment statisticRVV
attr inifile omnetpp.ini
attr iterationvars "$sc=\"erlangen-low.launchd.xml\", $p=1/10, $c=10"
attr iterationvars2 "$sc=\"erlangen-low.launchd.xml\", $p=1/10, $c=10, $repetition=9"
attr measurement "$sc=\"erlangen-low.launchd.xml\", $p=1/10, $c=10"
attr network RSUExampleScenario
attr p 1/10
attr processid 12488
attr repetition 9
attr replication #9
attr resultdir results
attr runnumber 49
attr sc "\"erlangen-low.launchd.xml\""
attr seedset 49

scalar . 	c 	10
scalar RSUExampleScenario.node[0].veinsmobility 	startTime 	0.1
scalar RSUExampleScenario.node[0].veinsmobility 	totalTime 	226.7
scalar RSUExampleScenario.node[0].veinsmobility 	stopTime 	226.9
scalar RSUExampleScenario.node[0].veinsmobility 	minSpeed 	0.25608746208949
scalar RSUExampleScenario.node[0].veinsmobility 	maxSpeed 	18.999295365335
scalar RSUExampleScenario.node[0].veinsmobility 	totalDistance 	3409.5569686537
scalar RSUExampleScenario.node[0].veinsmobility 	totalCO2Emission 	707.27216871897
scalar RSUExampleScenario.node[1].veinsmobility 	startTime 	6.1
scalar RSUExampleScenario.node[1].veinsmobility 	totalTime 	226.8
scalar RSUExampleScenario.node[1].veinsmobility 	stopTime 	233
scalar RSUExampleScenario.node[1].veinsmobility 	minSpeed 	0.25733790806821
scalar RSUExampleScenario.node[1].veinsmobility 	maxSpeed 	18.999898977699
scalar RSUExampleScenario.node[1].veinsmobility 	totalDistance 	3409.3668000212
scalar RSUExampleScenario.node[1].veinsmobility 	totalCO2Emission 	706.46594470944
scalar RSUExampleScenario.node[2].veinsmobility 	startTime 	12.1
scalar RSUExampleScenario.node[2].veinsmobility 	totalTime 	226.8
scalar RSUExampleScenario.node[2].veinsmobility 	stopTime 	239
scalar RSUExampleScenario.node[2].veinsmobility 	minSpeed 	0.24774112221343
scalar RSUExampleScenario.node[2].veinsmobility 	maxSpeed 	18.999983160649
scalar RSUExampleScenario.node[2].veinsmobility 	totalDistance 	3409.364671878
scalar RSUExampleScenario.node[2].veinsmobility 	totalCO2Emission 	703.60380539667
scalar RSUExampleScenario.node[3].veinsmobility 	startTime 	18.1
scalar RSUExampleScenario.node[3].veinsmobility 	totalTime 	226.7
scalar RSUExampleScenario.node[3].veinsmobility 	stopTime 	244.9
scalar RSUExampleScenario.node[3].veinsmobility 	minSpeed 	0.24938489728933
scalar RSUExampleScenario.node[3].veinsmobility 	maxSpeed 	18.999911028624
scalar RSUExampleScenario.node[3].veinsmobility 	totalDistance 	3409.4673046032
scalar RSUExampleScenario.node[3].veinsmobility 	totalCO2Emission 	706.25224731667
scalar RSUExampleScenario.node[4].veinsmobility 	startTime 	24.1
scalar RSUExampleScenario.node[4].veinsmobility 	totalTime 	226.5
scalar RSUExampleScenario.node[4].veinsmobility 	stopTime 	250.7
scalar RSUExampleScenario.node[4].veinsmobility 	minSpeed 	0.25735921876575
scalar RSUExampleScenario.node[4].veinsmobility 	maxSpeed 	18.999906784508
scalar RSUExampleScenario.node[4].veinsmobility 	totalDistance 	3409.5735649325
scalar RSUExampleScenario.node[4].veinsmobility 	totalCO2Emission 	706.86757591919
scalar RSUExampleScenario.node[5].veinsmobility 	startTime 	30.1
scalar RSUExampleScenario.node[5].veinsmobility 	totalTime 	226.8
scalar RSUExampleScenario.node[5].veinsmobility 	stopTime 	257
scalar RSUExampleScenario.node[5].veinsmobility 	minSpeed 	0.25383935108804
scalar RSUExampleScenario.node[5].veinsmobility 	maxSpeed 	18.999997215739
scalar RSUExampleScenario.node[5].veinsmobility 	totalDistance 	3409.4905422116
scalar RSUExampleScenario.node[5].veinsmobility 	totalCO2Emission 	706.38575146861
scalar RSUExampleScenario.node[6].veinsmobility 	startTime 	36.1
scalar RSUExampleScenario.node[6].veinsmobility 	totalTime 	226.8
scalar RSUExampleScenario.node[6].veinsmobility 	stopTime 	263
scalar RSUExampleScenario.node[6].veinsmobility 	minSpeed 	0.2502194001067
scalar RSUExampleScenario.node[6].veinsmobility 	maxSpeed 	18.999990046767
scalar RSUExampleScenario.node[6].veinsmobility 	totalDistance 	3409.4674990596
scalar RSUExampleScenario.node[6].veinsmobility 	totalCO2Emission 	705.62318394626
scalar RSUExampleScenario.node[7].veinsmobility 	startTime 	42.1
scalar RSUExampleScenario.node[7].veinsmobility 	totalTime 	226.6
scalar RSUExampleScenario.node[7].veinsmobility 	stopTime 	268.8
scalar RSUExampleScenario.node[7].veinsmobility 	minSpeed 	0.25196103773033
scalar RSUExampleScenario.node[7].veinsmobility 	maxSpeed 	18.999891752307
scalar RSUExampleScenario.node[7].veinsmobility 	totalDistance 	3409.4048259095
scalar RSUExampleScenario.node[7].veinsmobility 	totalCO2Emission 	709.21330673282
scalar RSUExampleScenario.node[8].veinsmobility 	startTime 	48.1
scalar RSUExampleScenario.node[8].veinsmobility 	totalTime 	227.1
scalar RSUExampleScenario.node[8].veinsmobility 	stopTime 	275.3
scalar RSUExampleScenario.node[8].veinsmobility 	minSpeed 	0.24985362603143
scalar RSUExampleScenario.node[8].veinsmobility 	maxSpeed 	18.999973770522
scalar RSUExampleScenario.node[8].veinsmobility 	totalDistance 	3409.5041345242
scalar RSUExampleScenario.node[8].veinsmobility 	totalCO2Emission 	709.55228926295
scalar RSUExampleScenario.node[9].veinsmobility 	startTime 	54.1
scalar RSUExampleScenario.node[9].veinsmobility 	totalTime 	226.8
scalar RSUExampleScenario.node[9].veinsmobility 	stopTime 	281
scalar RSUExampleScenario.node[9].veinsmobility 	minSpeed 	0.248834080589
scalar RSUExampleScenario.node[9].veinsmobility 	maxSpeed 	18.999729442787
scalar RSUExampleScenario.node[9].veinsmobility 	totalDistance 	3409.1838239598
scalar RSUExampleScenario.node[9].veinsmobility 	totalCO2Emission 	709.35858192037
scalar RSUExampleScenario.node[10].veinsmobility 	startTime 	60.1
scalar RSUExampleScenario.node[10].veinsmobility 	totalTime 	226.7
scalar RSUExampleScenario.node[10].veinsmobility 	stopTime 	286.9
scalar RSUExampleScenario.node[10].veinsmobility 	minSpeed 	0.25487408452039
scalar RSUExampleScenario.node[10].veinsmobility 	maxSpeed 	18.999850537726
scalar RSUExampleScenario.node[10].veinsmobility 	totalDistance 	3409.6074975816
scalar RSUExampleScenario.node[10].veinsmobility 	totalCO2Emission 	706.07958830275
scalar RSUExampleScenario.node[11].veinsmobility 	startTime 	66.1
scalar RSUExampleScenario.node[11].veinsmobility 	totalTime 	226.8
scalar RSUExampleScenario.node[11].veinsmobility 	stopTime 	293
scalar RSUExampleScenario.node[11].veinsmobility 	minSpeed 	0.25413002621266
scalar RSUExampleScenario.node[11].veinsmobility 	maxSpeed 	18.999171364973
scalar RSUExampleScenario.node[11].veinsmobility 	totalDistance 	3409.1376342345
scalar RSUExampleScenario.node[11].veinsmobility 	totalCO2Emission 	705.0325721046
scalar RSUExampleScenario.node[12].veinsmobility 	startTime 	72.1
scalar RSUExampleScenario.node[12].veinsmobility 	totalTime 	226.8
scalar RSUExampleScenario.node[12].veinsmobility 	stopTime 	299
scalar RSUExampleScenario.node[12].veinsmobility 	minSpeed 	0.25267438232503
scalar RSUExampleScenario.node[12].veinsmobility 	maxSpeed 	18.999984161339
scalar RSUExampleScenario.node[12].veinsmobility 	totalDistance 	3409.5573711329
scalar RSUExampleScenario.node[12].veinsmobility 	totalCO2Emission 	711.96197827969
scalar RSUExampleScenario.node[13].veinsmobility 	startTime 	78.1
scalar RSUExampleScenario.node[13].veinsmobility 	totalTime 	226.9
scalar RSUExampleScenario.node[13].veinsmobility 	stopTime 	305.1
scalar RSUExampleScenario.node[13].veinsmobility 	minSpeed 	0.2489146907432
scalar RSUExampleScenario.node[13].veinsmobility 	maxSpeed 	18.999674016964
scalar RSUExampleScenario.node[13].veinsmobility 	totalDistance 	3409.7321642793
scalar RSUExampleScenario.node[13].veinsmobility 	totalCO2Emission 	706.08494348027
scalar RSUExampleScenario.node[14].veinsmobility 	startTime 	84.1
scalar RSUExampleScenario.node[14].veinsmobility 	totalTime 	226.6
scalar RSUExampleScenario.node[14].veinsmobility 	stopTime 	310.8
scalar RSUExampleScenario.node[14].veinsmobility 	minSpeed 	0.2555108791294
scalar RSUExampleScenario.node[14].veinsmobility 	maxSpeed 	18.999735243858
scalar RSUExampleScenario.node[14].veinsmobility 	totalDistance 	3409.7267133905
scalar RSUExampleScenario.node[14].veinsmobility 	totalCO2Emission 	709.22503067235
scalar RSUExampleScenario.node[15].veinsmobility 	startTime 	90.1
scalar RSUExampleScenario.node[15].veinsmobility 	totalTime 	226.7
scalar RSUExampleScenario.node[15].veinsmobility 	stopTime 	316.9
scalar RSUExampleScenario.node[15].veinsmobility 	minSpeed 	0.25397120852233
scalar RSUExampleScenario.node[15].veinsmobility 	maxSpeed 	18.999753212992
scalar RSUExampleScenario.node[15].veinsmobility 	totalDistance 	3409.3643814615
scalar RSUExampleScenario.node[15].veinsmobility 	totalCO2Emission 	705.6682008432
scalar RSUExampleScenario.node[16].veinsmobility 	startTime 	96.1
scalar RSUExampleScenario.node[16].veinsmobility 	totalTime 	227
scalar RSUExampleScenario.node[16].veinsmobility 	stopTime 	323.2
scalar RSUExampleScenario.node[16].veinsmobility 	minSpeed 	0.25415324984677
scalar RSUExampleScenario.node[16].veinsmobility 	maxSpeed 	18.999966258826
scalar RSUExampleScenario.node[16].veinsmobility 	totalDistance 	3409.3500627189
scalar RSUExampleScenario.node[16].veinsmobility 	totalCO2Emission 	707.36700601318
scalar RSUExampleScenario.node[17].veinsmobility 	startTime 	102.1
scalar RSUExampleScenario.node[17].veinsmobility 	totalTime 	226.9
scalar RSUExampleScenario.node[17].veinsmobility 	stopTime 	329.1
scalar RSUExampleScenario.node[17].veinsmobility 	minSpeed 	0.2550272487991
scalar RSUExampleScenario.node[17].veinsmobility 	maxSpeed 	18.99984523529
scalar RSUExampleScenario.node[17].veinsmobility 	totalDistance 	3409.6922384072
scalar RSUExampleScenario.node[17].veinsmobility 	totalCO2Emission 	707.42872014382
scalar RSUExampleScenario.node[18].veinsmobility 	startTime 	108.1
scalar RSUExampleScenario.node[18].veinsmobility 	totalTime 	227
scalar RSUExampleScenario.node[18].veinsmobility 	stopTime 	335.2
scalar RSUExampleScenario.node[18].veinsmobility 	minSpeed 	0.25341033400712
scalar RSUExampleScenario.node[18].veinsmobility 	maxSpeed 	18.999963242167
scalar RSUExampleScenario.node[18].veinsmobility 	totalDistance 	3409.1371171417
scalar RSUExampleScenario.node[18].veinsmobility 	totalCO2Emission 	704.07622307263
scalar RSUExampleScenario.node[19].veinsmobility 	startTime 	114.1
scalar RSUExampleScenario.node[19].veinsmobility 	totalTime 	226.8
scalar RSUExampleScenario.node[19].veinsmobility 	stopTime 	341
scalar RSUExampleScenario.node[19].veinsmobility 	minSpeed 	0.25728751684236
scalar RSUExampleScenario.node[19].veinsmobility 	maxSpeed 	18.99987478574
scalar RSUExampleScenario.node[19].veinsmobility 	totalDistance 	3409.665330014
scalar RSUExampleScenario.node[19].veinsmobility 	totalCO2Emission 	705.33796005586
scalar RSUExampleScenario.node[20].veinsmobility 	startTime 	120.1
scalar RSUExampleScenario.node[20].veinsmobility 	totalTime 	226.9
scalar RSUExampleScenario.node[20].veinsmobility 	stopTime 	347.1
scalar RSUExampleScenario.node[20].veinsmobility 	minSpeed 	0.25137853634427
scalar RSUExampleScenario.node[20].veinsmobility 	maxSpeed 	18.999924412461
scalar RSUExampleScenario.node[20].veinsmobility 	totalDistance 	3409.2830287978
scalar RSUExampleScenario.node[20].veinsmobility 	totalCO2Emission 	707.78176389044
scalar RSUExampleScenario.node[21].veinsmobility 	startTime 	126.1
scalar RSUExampleScenario.node[21].veinsmobility 	totalTime 	226.9
scalar RSUExampleScenario.node[21].veinsmobility 	stopTime 	353.1
scalar RSUExampleScenario.node[21].veinsmobility 	minSpeed 	0.25356211486645
scalar RSUExampleScenario.node[21].veinsmobility 	maxSpeed 	18.999665742575
scalar RSUExampleScenario.node[21].veinsmobility 	totalDistance 	3409.7721392706
scalar RSUExampleScenario.node[21].veinsmobility 	totalCO2Emission 	707.07141966475
scalar RSUExampleScenario.node[22].veinsmobility 	startTime 	132.1
scalar RSUExampleScenario.node[22].veinsmobility 	totalTime 	227.1
scalar RSUExampleScenario.node[22].veinsmobility 	stopTime 	359.3
scalar RSUExampleScenario.node[22].veinsmobility 	minSpeed 	0.25087346768542
scalar RSUExampleScenario.node[22].veinsmobility 	maxSpeed 	18.999685337371
scalar RSUExampleScenario.node[22].veinsmobility 	totalDistance 	3409.4465708343
scalar RSUExampleScenario.node[22].veinsmobility 	totalCO2Emission 	707.9511412142
scalar RSUExampleScenario.node[23].veinsmobility 	startTime 	138.1
scalar RSUExampleScenario.node[23].veinsmobility 	totalTime 	227
scalar RSUExampleScenario.node[23].veinsmobility 	stopTime 	365.2
scalar RSUExampleScenario.node[23].veinsmobility 	minSpeed 	0.2530521580372
scalar RSUExampleScenario.node[23].veinsmobility 	maxSpeed 	18.99976116884
scalar RSUExampleScenario.node[23].veinsmobility 	totalDistance 	3410.0690744474
scalar RSUExampleScenario.node[23].veinsmobility 	totalCO2Emission 	707.18296533689
scalar RSUExampleScenario.node[24].veinsmobility 	startTime 	144.1
scalar RSUExampleScenario.node[24].veinsmobility 	totalTime 	227
scalar RSUExampleScenario.node[24].veinsmobility 	stopTime 	371.2
scalar RSUExampleScenario.node[24].veinsmobility 	minSpeed 	0.25178739275062
scalar RSUExampleScenario.node[24].veinsmobility 	maxSpeed 	18.999979172207
scalar RSUExampleScenario.node[24].veinsmobility 	totalDistance 	3409.8484475007
scalar RSUExampleScenario.node[24].veinsmobility 	totalCO2Emission 	711.65375020517
scalar RSUExampleScenario.node[25].veinsmobility 	startTime 	150.1
scalar RSUExampleScenario.node[25].veinsmobility 	totalTime 	227
scalar RSUExampleScenario.node[25].veinsmobility 	stopTime 	377.2
scalar RSUExampleScenario.node[25].veinsmobility 	minSpeed 	0.25627193695377
scalar RSUExampleScenario.node[25].veinsmobility 	maxSpeed 	18.999941937653
scalar RSUExampleScenario.node[25].veinsmobility 	totalDistance 	3409.4925585926
scalar RSUExampleScenario.node[25].veinsmobility 	totalCO2Emission 	710.36709270041
scalar RSUExampleScenario.node[26].veinsmobility 	startTime 	156.1
scalar RSUExampleScenario.node[26].veinsmobility 	totalTime 	226.7
scalar RSUExampleScenario.node[26].veinsmobility 	stopTime 	382.9
scalar RSUExampleScenario.node[26].veinsmobility 	minSpeed 	0.2509688960698
scalar RSUExampleScenario.node[26].veinsmobility 	maxSpeed 	18.999488763283
scalar RSUExampleScenario.node[26].veinsmobility 	totalDistance 	3409.7307533727
scalar RSUExampleScenario.node[26].veinsmobility 	totalCO2Emission 	706.16082281495
scalar RSUExampleScenario.node[27].veinsmobility 	startTime 	162.1
scalar RSUExampleScenario.node[27].veinsmobility 	totalTime 	227
scalar RSUExampleScenario.node[27].veinsmobility 	stopTime 	389.2
scalar RSUExampleScenario.node[27].veinsmobility 	minSpeed 	0.25381308103283
scalar RSUExampleScenario.node[27].veinsmobility 	maxSpeed 	18.999852702734
scalar RSUExampleScenario.node[27].veinsmobility 	totalDistance 	3409.3348704996
scalar RSUExampleScenario.node[27].veinsmobility 	totalCO2Emission 	706.56827684281
scalar RSUExampleScenario.node[28].veinsmobility 	startTime 	168.1
scalar RSUExampleScenario.node[28].veinsmobility 	totalTime 	226.8
scalar RSUExampleScenario.node[28].veinsmobility 	stopTime 	395
scalar RSUExampleScenario.node[28].veinsmobility 	minSpeed 	0.24919538064161
scalar RSUExampleScenario.node[28].veinsmobility 	maxSpeed 	18.999918182523
scalar RSUExampleScenario.node[28].veinsmobility 	totalDistance 	3409.3538213932
scalar RSUExampleScenario.node[28].veinsmobility 	totalCO2Emission 	709.094995856
scalar RSUExampleScenario.node[29].veinsmobility 	startTime 	174.1
scalar RSUExampleScenario.node[29].veinsmobility 	totalTime 	227.3
scalar RSUExampleScenario.node[29].veinsmobility 	stopTime 	401.5
scalar RSUExampleScenario.node[29].veinsmobility 	minSpeed 	0.25294515210367
scalar RSUExampleScenario.node[29].veinsmobility 	maxSpeed 	18.999996474476
scalar RSUExampleScenario.node[29].veinsmobility 	totalDistance 	3409.860257687
scalar RSUExampleScenario.node[29].veinsmobility 	totalCO2Emission 	707.43729731451
scalar RSUExampleScenario.node[30].veinsmobility 	startTime 	180.1
scalar RSUExampleScenario.node[30].veinsmobility 	totalTime 	227.2
scalar RSUExampleScenario.node[30].veinsmobility 	stopTime 	407.4
scalar RSUExampleScenario.node[30].veinsmobility 	minSpeed 	0.25982327884273
scalar RSUExampleScenario.node[30].veinsmobility 	maxSpeed 	18.999675764516
scalar RSUExampleScenario.node[30].veinsmobility 	totalDistance 	3409.6979744572
scalar RSUExampleScenario.node[30].veinsmobility 	totalCO2Emission 	702.74541592566
scalar RSUExampleScenario.node[31].veinsmobility 	startTime 	186.1
scalar RSUExampleScenario.node[31].veinsmobility 	totalTime 	226.7
scalar RSUExampleScenario.node[31].veinsmobility 	stopTime 	412.9
scalar RSUExampleScenario.node[31].veinsmobility 	minSpeed 	0.25260034405231
scalar RSUExampleScenario.node[31].veinsmobility 	maxSpeed 	18.999651930931
scalar RSUExampleScenario.node[31].veinsmobility 	totalDistance 	3409.4096816086
scalar RSUExampleScenario.node[31].veinsmobility 	totalCO2Emission 	705.20809495767
scalar RSUExampleScenario.node[32].veinsmobility 	startTime 	192.1
scalar RSUExampleScenario.node[32].veinsmobility 	totalTime 	227
scalar RSUExampleScenario.node[32].veinsmobility 	stopTime 	419.2
scalar RSUExampleScenario.node[32].veinsmobility 	minSpeed 	0.2561157117011
scalar RSUExampleScenario.node[32].veinsmobility 	maxSpeed 	18.999988852574
scalar RSUExampleScenario.node[32].veinsmobility 	totalDistance 	3409.6011947153
scalar RSUExampleScenario.node[32].veinsmobility 	totalCO2Emission 	708.79284440182
scalar RSUExampleScenario.node[33].veinsmobility 	startTime 	198.1
scalar RSUExampleScenario.node[33].veinsmobility 	totalTime 	226.7
scalar RSUExampleScenario.node[33].veinsmobility 	stopTime 	424.9
scalar RSUExampleScenario.node[33].veinsmobility 	minSpeed 	0.25246871662745
scalar RSUExampleScenario.node[33].veinsmobility 	maxSpeed 	18.999978008706
scalar RSUExampleScenario.node[33].veinsmobility 	totalDistance 	3409.2244033013
scalar RSUExampleScenario.node[33].veinsmobility 	totalCO2Emission 	706.75964241378
scalar RSUExampleScenario.node[34].veinsmobility 	startTime 	204.1
scalar RSUExampleScenario.node[34].veinsmobility 	totalTime 	227
scalar RSUExampleScenario.node[34].veinsmobility 	stopTime 	431.2
scalar RSUExampleScenario.node[34].veinsmobility 	minSpeed 	0.25744955732231
scalar RSUExampleScenario.node[34].veinsmobility 	maxSpeed 	18.999677466969
scalar RSUExampleScenario.node[34].veinsmobility 	totalDistance 	3409.5140849206
scalar RSUExampleScenario.node[34].veinsmobility 	totalCO2Emission 	711.68805198481
scalar RSUExampleScenario.node[35].veinsmobility 	startTime 	210.1
scalar RSUExampleScenario.node[35].veinsmobility 	totalTime 	226.9
scalar RSUExampleScenario.node[35].veinsmobility 	stopTime 	437.1
scalar RSUExampleScenario.node[35].veinsmobility 	minSpeed 	0.25395152278873
scalar RSUExampleScenario.node[35].veinsmobility 	maxSpeed 	18.999530255604
scalar RSUExampleScenario.node[35].veinsmobility 	totalDistance 	3409.6255196276
scalar RSUExampleScenario.node[35].veinsmobility 	totalCO2Emission 	704.00777767419
scalar RSUExampleScenario.node[36].veinsmobility 	startTime 	216.1
scalar RSUExampleScenario.node[36].veinsmobility 	totalTime 	227.2
scalar RSUExampleScenario.node[36].veinsmobility 	stopTime 	443.4
scalar RSUExampleScenario.node[36].veinsmobility 	minSpeed 	0.25438582641515
scalar RSUExampleScenario.node[36].veinsmobility 	maxSpeed 	18.999450983119
scalar RSUExampleScenario.node[36].veinsmobility 	totalDistance 	3409.1763148184
scalar RSUExampleScenario.node[36].veinsmobility 	totalCO2Emission 	707.29630087266
scalar RSUExampleScenario.node[37].veinsmobility 	startTime 	222.1
scalar RSUExampleScenario.node[37].veinsmobility 	totalTime 	226.8
scalar RSUExampleScenario.node[37].veinsmobility 	stopTime 	449
scalar RSUExampleScenario.node[37].veinsmobility 	minSpeed 	0.24781315439078
scalar RSUExampleScenario.node[37].veinsmobility 	maxSpeed 	18.998828693412
scalar RSUExampleScenario.node[37].veinsmobility 	totalDistance 	3409.5864788259
scalar RSUExampleScenario.node[37].veinsmobility 	totalCO2Emission 	713.98623076814
scalar RSUExampleScenario.node[38].veinsmobility 	startTime 	228.1
scalar RSUExampleScenario.node[38].veinsmobility 	totalTime 	226.7
scalar RSUExampleScenario.node[38].veinsmobility 	stopTime 	454.9
scalar RSUExampleScenario.node[38].veinsmobility 	minSpeed 	0.25179151380621
scalar RSUExampleScenario.node[38].veinsmobility 	maxSpeed 	18.999895584264
scalar RSUExampleScenario.node[38].veinsmobility 	totalDistance 	3409.4148412545
scalar RSUExampleScenario.node[38].veinsmobility 	totalCO2Emission 	707.60599523436
scalar RSUExampleScenario.node[39].veinsmobility 	startTime 	234.1
scalar RSUExampleScenario.node[39].veinsmobility 	totalTime 	226.9
scalar RSUExampleScenario.node[39].veinsmobility 	stopTime 	461.1
scalar RSUExampleScenario.node[39].veinsmobility 	minSpeed 	0.24906868931954
scalar RSUExampleScenario.node[39].veinsmobility 	maxSpeed 	18.99974496654
scalar RSUExampleScenario.node[39].veinsmobility 	totalDistance 	3409.3853892443
scalar RSUExampleScenario.node[39].veinsmobility 	totalCO2Emission 	703.81487523744
scalar RSUExampleScenario.node[40].veinsmobility 	startTime 	240.1
scalar RSUExampleScenario.node[40].veinsmobility 	totalTime 	227.1
scalar RSUExampleScenario.node[40].veinsmobility 	stopTime 	467.3
scalar RSUExampleScenario.node[40].veinsmobility 	minSpeed 	0.25821282412228
scalar RSUExampleScenario.node[40].veinsmobility 	maxSpeed 	18.999971913279
scalar RSUExampleScenario.node[40].veinsmobility 	totalDistance 	3409.1460048074
scalar RSUExampleScenario.node[40].veinsmobility 	totalCO2Emission 	702.83672454086
scalar RSUExampleScenario.node[41].veinsmobility 	startTime 	246.1
scalar RSUExampleScenario.node[41].veinsmobility 	totalTime 	227.2
scalar RSUExampleScenario.node[41].veinsmobility 	stopTime 	473.4
scalar RSUExampleScenario.node[41].veinsmobility 	minSpeed 	0.25508777671517
scalar RSUExampleScenario.node[41].veinsmobility 	maxSpeed 	18.999708641116
scalar RSUExampleScenario.node[41].veinsmobility 	totalDistance 	3409.3836759841
scalar RSUExampleScenario.node[41].veinsmobility 	totalCO2Emission 	705.47016502113
scalar RSUExampleScenario.node[42].veinsmobility 	startTime 	252.1
scalar RSUExampleScenario.node[42].veinsmobility 	totalTime 	227
scalar RSUExampleScenario.node[42].veinsmobility 	stopTime 	479.2
scalar RSUExampleScenario.node[42].veinsmobility 	minSpeed 	0.25281581960036
scalar RSUExampleScenario.node[42].veinsmobility 	maxSpeed 	18.999941519683
scalar RSUExampleScenario.node[42].veinsmobility 	totalDistance 	3409.6167176193
scalar RSUExampleScenario.node[42].veinsmobility 	totalCO2Emission 	710.54876565289
scalar RSUExampleScenario.node[43].veinsmobility 	startTime 	258.1
scalar RSUExampleScenario.node[43].veinsmobility 	totalTime 	227
scalar RSUExampleScenario.node[43].veinsmobility 	stopTime 	485.2
scalar RSUExampleScenario.node[43].veinsmobility 	minSpeed 	0.24970127436332
scalar RSUExampleScenario.node[43].veinsmobility 	maxSpeed 	18.999955902696
scalar RSUExampleScenario.node[43].veinsmobility 	totalDistance 	3409.4244045833
scalar RSUExampleScenario.node[43].veinsmobility 	totalCO2Emission 	707.6577333368
scalar RSUExampleScenario.node[44].veinsmobility 	startTime 	264.1
scalar RSUExampleScenario.node[44].veinsmobility 	totalTime 	226.8
scalar RSUExampleScenario.node[44].veinsmobility 	stopTime 	491
scalar RSUExampleScenario.node[44].veinsmobility 	minSpeed 	0.25471268043388
scalar RSUExampleScenario.node[44].veinsmobility 	maxSpeed 	18.999843882401
scalar RSUExampleScenario.node[44].veinsmobility 	totalDistance 	3409.180656697
scalar RSUExampleScenario.node[44].veinsmobility 	totalCO2Emission 	709.09286240077
scalar RSUExampleScenario.node[45].veinsmobility 	startTime 	270.1
scalar RSUExampleScenario.node[45].veinsmobility 	totalTime 	226.8
scalar RSUExampleScenario.node[45].veinsmobility 	stopTime 	497
scalar RSUExampleScenario.node[45].veinsmobility 	minSpeed 	0.25357161124051
scalar RSUExampleScenario.node[45].veinsmobility 	maxSpeed 	18.999523073526
scalar RSUExampleScenario.node[45].veinsmobility 	totalDistance 	3409.4363563553
scalar RSUExampleScenario.node[45].veinsmobility 	totalCO2Emission 	705.81633278716
scalar RSUExampleScenario.node[46].veinsmobility 	startTime 	276.1
scalar RSUExampleScenario.node[46].veinsmobility 	totalTime 	226.6
scalar RSUExampleScenario.node[46].veinsmobility 	stopTime 	502.8
scalar RSUExampleScenario.node[46].veinsmobility 	minSpeed 	0.24830124299228
scalar RSUExampleScenario.node[46].veinsmobility 	maxSpeed 	18.99987472248
scalar RSUExampleScenario.node[46].veinsmobility 	totalDistance 	3409.8864488187
scalar RSUExampleScenario.node[46].veinsmobility 	totalCO2Emission 	705.34206663227
scalar RSUExampleScenario.node[47].veinsmobility 	startTime 	282.1
scalar RSUExampleScenario.node[47].veinsmobility 	totalTime 	227
scalar RSUExampleScenario.node[47].veinsmobility 	stopTime 	509.2
scalar RSUExampleScenario.node[47].veinsmobility 	minSpeed 	0.24729938320233
scalar RSUExampleScenario.node[47].veinsmobility 	maxSpeed 	18.999817365287
scalar RSUExampleScenario.node[47].veinsmobility 	totalDistance 	3409.4265646143
scalar RSUExampleScenario.node[47].veinsmobility 	totalCO2Emission 	707.70446206074
scalar RSUExampleScenario.node[48].veinsmobility 	startTime 	288.1
scalar RSUExampleScenario.node[48].veinsmobility 	totalTime 	226.6
scalar RSUExampleScenario.node[48].veinsmobility 	stopTime 	514.8
scalar RSUExampleScenario.node[48].veinsmobility 	minSpeed 	0.25660397806345
scalar RSUExampleScenario.node[48].veinsmobility 	maxSpeed 	18.999863981644
scalar RSUExampleScenario.node[48].veinsmobility 	totalDistance 	3409.5055321155
scalar RSUExampleScenario.node[48].veinsmobility 	totalCO2Emission 	710.51263500423
scalar RSUExampleScenario.node[49].veinsmobility 	startTime 	294.1
scalar RSUExampleScenario.node[49].veinsmobility 	totalTime 	227
scalar RSUExampleScenario.node[49].veinsmobility 	stopTime 	521.2
scalar RSUExampleScenario.node[49].veinsmobility 	minSpeed 	0.24719240615051
scalar RSUExampleScenario.node[49].veinsmobility 	maxSpeed 	18.999585548551
scalar RSUExampleScenario.node[49].veinsmobility 	totalDistance 	3409.3529526721
scalar RSUExampleScenario.node[49].veinsmobility 	totalCO2Emission 	704.75477569962
scalar RSUExampleScenario.node[50].veinsmobility 	startTime 	300.1
scalar RSUExampleScenario.node[50].veinsmobility 	totalTime 	226.9
scalar RSUExampleScenario.node[50].veinsmobility 	stopTime 	527.1
scalar RSUExampleScenario.node[50].veinsmobility 	minSpeed 	0.24788178853295
scalar RSUExampleScenario.node[50].veinsmobility 	maxSpeed 	18.999881283611
scalar RSUExampleScenario.node[50].veinsmobility 	totalDistance 	3409.3262332184
scalar RSUExampleScenario.node[50].veinsmobility 	totalCO2Emission 	701.08370204791
scalar RSUExampleScenario.node[51].veinsmobility 	startTime 	306.1
scalar RSUExampleScenario.node[51].veinsmobility 	totalTime 	227
scalar RSUExampleScenario.node[51].veinsmobility 	stopTime 	533.2
scalar RSUExampleScenario.node[51].veinsmobility 	minSpeed 	0.25714400585601
scalar RSUExampleScenario.node[51].veinsmobility 	maxSpeed 	18.999783145667
scalar RSUExampleScenario.node[51].veinsmobility 	totalDistance 	3409.5016048204
scalar RSUExampleScenario.node[51].veinsmobility 	totalCO2Emission 	709.08775833674
scalar RSUExampleScenario.node[52].veinsmobility 	startTime 	312.1
scalar RSUExampleScenario.node[52].veinsmobility 	totalTime 	227
scalar RSUExampleScenario.node[52].veinsmobility 	stopTime 	539.2
scalar RSUExampleScenario.node[52].veinsmobility 	minSpeed 	0.24774486407475
scalar RSUExampleScenario.node[52].veinsmobility 	maxSpeed 	18.999980819572
scalar RSUExampleScenario.node[52].veinsmobility 	totalDistance 	3409.5885621614
scalar RSUExampleScenario.node[52].veinsmobility 	totalCO2Emission 	704.61066108516
scalar RSUExampleScenario.node[53].veinsmobility 	startTime 	318.1
scalar RSUExampleScenario.node[53].veinsmobility 	totalTime 	227
scalar RSUExampleScenario.node[53].veinsmobility 	stopTime 	545.2
scalar RSUExampleScenario.node[53].veinsmobility 	minSpeed 	0.25509554330423
scalar RSUExampleScenario.node[53].veinsmobility 	maxSpeed 	18.999970908321
scalar RSUExampleScenario.node[53].veinsmobility 	totalDistance 	3409.26916232
scalar RSUExampleScenario.node[53].veinsmobility 	totalCO2Emission 	698.42417567307
scalar RSUExampleScenario.node[54].veinsmobility 	startTime 	324.1
scalar RSUExampleScenario.node[54].veinsmobility 	totalTime 	226.8
scalar RSUExampleScenario.node[54].veinsmobility 	stopTime 	551
scalar RSUExampleScenario.node[54].veinsmobility 	minSpeed 	0.25361570258508
scalar RSUExampleScenario.node[54].veinsmobility 	maxSpeed 	18.999807387355
scalar RSUExampleScenario.node[54].veinsmobility 	totalDistance 	3409.4786120472
scalar RSUExampleScenario.node[54].veinsmobility 	totalCO2Emission 	706.67186184168
scalar RSUExampleScenario.node[55].veinsmobility 	startTime 	330.1
scalar RSUExampleScenario.node[55].veinsmobility 	totalTime 	227.1
scalar RSUExampleScenario.node[55].veinsmobility 	stopTime 	557.3
scalar RSUExampleScenario.node[55].veinsmobility 	minSpeed 	0.25556906984863
scalar RSUExampleScenario.node[55].veinsmobility 	maxSpeed 	18.999889435414
scalar RSUExampleScenario.node[55].veinsmobility 	totalDistance 	3409.5864232215
scalar RSUExampleScenario.node[55].veinsmobility 	totalCO2Emission 	705.69889430872
scalar RSUExampleScenario.node[56].veinsmobility 	startTime 	336.1
scalar RSUExampleScenario.node[56].veinsmobility 	totalTime 	226.7
scalar RSUExampleScenario.node[56].veinsmobility 	stopTime 	562.9
scalar RSUExampleScenario.node[56].veinsmobility 	minSpeed 	0.25778495980357
scalar RSUExampleScenario.node[56].veinsmobility 	maxSpeed 	18.999935412814
scalar RSUExampleScenario.node[56].veinsmobility 	totalDistance 	3409.2737996709
scalar RSUExampleScenario.node[56].veinsmobility 	totalCO2Emission 	710.131878186
scalar RSUExampleScenario.node[57].veinsmobility 	startTime 	342.1
scalar RSUExampleScenario.node[57].veinsmobility 	totalTime 	227
scalar RSUExampleScenario.node[57].veinsmobility 	stopTime 	569.2
scalar RSUExampleScenario.node[57].veinsmobility 	minSpeed 	0.25075005605677
scalar RSUExampleScenario.node[57].veinsmobility 	maxSpeed 	18.99946105137
scalar RSUExampleScenario.node[57].veinsmobility 	totalDistance 	3409.3196610076
scalar RSUExampleScenario.node[57].veinsmobility 	totalCO2Emission 	709.82589362578
scalar RSUExampleScenario.node[58].veinsmobility 	startTime 	348.1
scalar RSUExampleScenario.node[58].veinsmobility 	totalTime 	226.7
scalar RSUExampleScenario.node[58].veinsmobility 	stopTime 	574.9
scalar RSUExampleScenario.node[58].veinsmobility 	minSpeed 	0.24953957049968
scalar RSUExampleScenario.node[58].veinsmobility 	maxSpeed 	18.999915027267
scalar RSUExampleScenario.node[58].veinsmobility 	totalDistance 	3409.6138978504
scalar RSUExampleScenario.node[58].veinsmobility 	totalCO2Emission 	705.26565199006
scalar RSUExampleScenario.node[59].veinsmobility 	startTime 	354.1
scalar RSUExampleScenario.node[59].veinsmobility 	totalTime 	226.6
scalar RSUExampleScenario.node[59].veinsmobility 	stopTime 	580.8
scalar RSUExampleScenario.node[59].veinsmobility 	minSpeed 	0.24906676774449
scalar RSUExampleScenario.node[59].veinsmobility 	maxSpeed 	18.99999903999
scalar RSUExampleScenario.node[59].veinsmobility 	totalDistance 	3409.3416411682
scalar RSUExampleScenario.node[59].veinsmobility 	totalCO2Emission 	703.46249906852
scalar RSUExampleScenario.node[60].veinsmobility 	startTime 	360.1
scalar RSUExampleScenario.node[60].veinsmobility 	totalTime 	227.2
scalar RSUExampleScenario.node[60].veinsmobility 	stopTime 	587.4
scalar RSUExampleScenario.node[60].veinsmobility 	minSpeed 	0.25448599794088
scalar RSUExampleScenario.node[60].veinsmobility 	maxSpeed 	18.999977715893
scalar RSUExampleScenario.node[60].veinsmobility 	totalDistance 	3409.4487133112
scalar RSUExampleScenario.node[60].veinsmobility 	totalCO2Emission 	712.2061582839
scalar RSUExampleScenario.node[61].veinsmobility 	startTime 	366.1
scalar RSUExampleScenario.node[61].veinsmobility 	totalTime 	226.8
scalar RSUExampleScenario.node[61].veinsmobility 	stopTime 	593
scalar RSUExampleScenario.node[61].veinsmobility 	minSpeed 	0.25989313357766
scalar RSUExampleScenario.node[61].veinsmobility 	maxSpeed 	18.999286031143
scalar RSUExampleScenario.node[61].veinsmobility 	totalDistance 	3409.5210876068
scalar RSUExampleScenario.node[61].veinsmobility 	totalCO2Emission 	711.5498155108
scalar RSUExampleScenario.node[62].veinsmobility 	startTime 	372.1
scalar RSUExampleScenario.node[62].veinsmobility 	totalTime 	226.7
scalar RSUExampleScenario.node[62].veinsmobility 	stopTime 	598.9
scalar RSUExampleScenario.node[62].veinsmobility 	minSpeed 	0.25812937923218
scalar RSUExampleScenario.node[62].veinsmobility 	maxSpeed 	18.999989081824
scalar RSUExampleScenario.node[62].veinsmobility 	totalDistance 	3409.2830947741
scalar RSUExampleScenario.node[62].veinsmobility 	totalCO2Emission 	707.36628902044
scalar RSUExampleScenario.node[63].veinsmobility 	startTime 	378.1
scalar RSUExampleScenario.node[63].veinsmobility 	totalTime 	226.7
scalar RSUExampleScenario.node[63].veinsmobility 	stopTime 	604.9
scalar RSUExampleScenario.node[63].veinsmobility 	minSpeed 	0.25669210893079
scalar RSUExampleScenario.node[63].veinsmobility 	maxSpeed 	18.999806678721
scalar RSUExampleScenario.node[63].veinsmobility 	totalDistance 	3409.4330844538
scalar RSUExampleScenario.node[63].veinsmobility 	totalCO2Emission 	709.95054703355
scalar RSUExampleScenario.node[64].veinsmobility 	startTime 	384.1
scalar RSUExampleScenario.node[64].veinsmobility 	totalTime 	226.8
scalar RSUExampleScenario.node[64].veinsmobility 	stopTime 	611
scalar RSUExampleScenario.node[64].veinsmobility 	minSpeed 	0.25928652118496
scalar RSUExampleScenario.node[64].veinsmobility 	maxSpeed 	18.999967939728
scalar RSUExampleScenario.node[64].veinsmobility 	totalDistance 	3409.4417045167
scalar RSUExampleScenario.node[64].veinsmobility 	totalCO2Emission 	708.79387730739
scalar RSUExampleScenario.node[65].veinsmobility 	startTime 	390.1
scalar RSUExampleScenario.node[65].veinsmobility 	totalTime 	227
scalar RSUExampleScenario.node[65].veinsmobility 	stopTime 	617.2
scalar RSUExampleScenario.node[65].veinsmobility 	minSpeed 	0.25573051103763
scalar RSUExampleScenario.node[65].veinsmobility 	maxSpeed 	18.999657492007
scalar RSUExampleScenario.node[65].veinsmobility 	totalDistance 	3409.537490304
scalar RSUExampleScenario.node[65].veinsmobility 	totalCO2Emission 	706.03424348854
scalar RSUExampleScenario.node[66].veinsmobility 	startTime 	396.1
scalar RSUExampleScenario.node[66].veinsmobility 	totalTime 	226.7
scalar RSUExampleScenario.node[66].veinsmobility 	stopTime 	622.9
scalar RSUExampleScenario.node[66].veinsmobility 	minSpeed 	0.25754628413054
scalar RSUExampleScenario.node[66].veinsmobility 	maxSpeed 	18.999728068046
scalar RSUExampleScenario.node[66].veinsmobility 	totalDistance 	3409.6304714777
scalar RSUExampleScenario.node[66].veinsmobility 	totalCO2Emission 	709.12090978474
scalar RSUExampleScenario.node[67].veinsmobility 	startTime 	402.1
scalar RSUExampleScenario.node[67].veinsmobility 	totalTime 	227
scalar RSUExampleScenario.node[67].veinsmobility 	stopTime 	629.2
scalar RSUExampleScenario.node[67].veinsmobility 	minSpeed 	0.2558900963997
scalar RSUExampleScenario.node[67].veinsmobility 	maxSpeed 	18.999882683656
scalar RSUExampleScenario.node[67].veinsmobility 	totalDistance 	3409.64041324
scalar RSUExampleScenario.node[67].veinsmobility 	totalCO2Emission 	704.88702171869
scalar RSUExampleScenario.node[68].veinsmobility 	startTime 	408.1
scalar RSUExampleScenario.node[68].veinsmobility 	totalTime 	226.7
scalar RSUExampleScenario.node[68].veinsmobility 	stopTime 	634.9
scalar RSUExampleScenario.node[68].veinsmobility 	minSpeed 	0.25960258107469
scalar RSUExampleScenario.node[68].veinsmobility 	maxSpeed 	18.999879895854
scalar RSUExampleScenario.node[68].veinsmobility 	totalDistance 	3409.2649062945
scalar RSUExampleScenario.node[68].veinsmobility 	totalCO2Emission 	701.4049436071
scalar RSUExampleScenario.node[69].veinsmobility 	startTime 	414.1
scalar RSUExampleScenario.node[69].veinsmobility 	totalTime 	226.8
scalar RSUExampleScenario.node[69].veinsmobility 	stopTime 	641
scalar RSUExampleScenario.node[69].veinsmobility 	minSpeed 	0.25729697431903
scalar RSUExampleScenario.node[69].veinsmobility 	maxSpeed 	18.99999608859
scalar RSUExampleScenario.node[69].veinsmobility 	totalDistance 	3409.5643244668
scalar RSUExampleScenario.node[69].veinsmobility 	totalCO2Emission 	703.64265128095
scalar RSUExampleScenario.node[70].veinsmobility 	startTime 	420.1
scalar RSUExampleScenario.node[70].veinsmobility 	totalTime 	227.1
scalar RSUExampleScenario.node[70].veinsmobility 	stopTime 	647.3
scalar RSUExampleScenario.node[70].veinsmobility 	minSpeed 	0.25632991728629
scalar RSUExampleScenario.node[70].veinsmobility 	maxSpeed 	18.999530922256
scalar RSUExampleScenario.node[70].veinsmobility 	totalDistance 	3409.2598075669
scalar RSUExampleScenario.node[70].veinsmobility 	totalCO2Emission 	708.75908113247
scalar RSUExampleScenario.node[71].veinsmobility 	startTime 	426.1
scalar RSUExampleScenario.node[71].veinsmobility 	totalTime 	227.1
scalar RSUExampleScenario.node[71].veinsmobility 	stopTime 	653.3
scalar RSUExampleScenario.node[71].veinsmobility 	minSpeed 	0.25703392827907
scalar RSUExampleScenario.node[71].veinsmobility 	maxSpeed 	18.999778195519
scalar RSUExampleScenario.node[71].veinsmobility 	totalDistance 	3409.688034756
scalar RSUExampleScenario.node[71].veinsmobility 	totalCO2Emission 	706.30555937572
scalar RSUExampleScenario.node[72].veinsmobility 	startTime 	432.1
scalar RSUExampleScenario.node[72].veinsmobility 	totalTime 	227.1
scalar RSUExampleScenario.node[72].veinsmobility 	stopTime 	659.3
scalar RSUExampleScenario.node[72].veinsmobility 	minSpeed 	0.25844802282122
scalar RSUExampleScenario.node[72].veinsmobility 	maxSpeed 	18.99998168563
scalar RSUExampleScenario.node[72].veinsmobility 	totalDistance 	3409.4939796533
scalar RSUExampleScenario.node[72].veinsmobility 	totalCO2Emission 	708.13839055471
scalar RSUExampleScenario.node[73].veinsmobility 	startTime 	438.1
scalar RSUExampleScenario.node[73].veinsmobility 	totalTime 	227.1
scalar RSUExampleScenario.node[73].veinsmobility 	stopTime 	665.3
scalar RSUExampleScenario.node[73].veinsmobility 	minSpeed 	0.25173834129469
scalar RSUExampleScenario.node[73].veinsmobility 	maxSpeed 	18.999839456042
scalar RSUExampleScenario.node[73].veinsmobility 	totalDistance 	3409.4613384371
scalar RSUExampleScenario.node[73].veinsmobility 	totalCO2Emission 	708.42146562525
scalar RSUExampleScenario.node[74].veinsmobility 	startTime 	444.1
scalar RSUExampleScenario.node[74].veinsmobility 	totalTime 	226.9
scalar RSUExampleScenario.node[74].veinsmobility 	stopTime 	671.1
scalar RSUExampleScenario.node[74].veinsmobility 	minSpeed 	0.24905090777506
scalar RSUExampleScenario.node[74].veinsmobility 	maxSpeed 	18.999921594905
scalar RSUExampleScenario.node[74].veinsmobility 	totalDistance 	3409.4696366481
scalar RSUExampleScenario.node[74].veinsmobility 	totalCO2Emission 	705.70564907252
scalar RSUExampleScenario.node[75].veinsmobility 	startTime 	450.1
scalar RSUExampleScenario.node[75].veinsmobility 	totalTime 	226.6
scalar RSUExampleScenario.node[75].veinsmobility 	stopTime 	676.8
scalar RSUExampleScenario.node[75].veinsmobility 	minSpeed 	0.25057181380922
scalar RSUExampleScenario.node[75].veinsmobility 	maxSpeed 	18.999235786533
scalar RSUExampleScenario.node[75].veinsmobility 	totalDistance 	3409.0753569297
scalar RSUExampleScenario.node[75].veinsmobility 	totalCO2Emission 	704.08008870556
scalar RSUExampleScenario.node[76].veinsmobility 	startTime 	456.1
scalar RSUExampleScenario.node[76].veinsmobility 	totalTime 	227
scalar RSUExampleScenario.node[76].veinsmobility 	stopTime 	683.2
scalar RSUExampleScenario.node[76].veinsmobility 	minSpeed 	0.24784050994669
scalar RSUExampleScenario.node[76].veinsmobility 	maxSpeed 	18.999618174864
scalar RSUExampleScenario.node[76].veinsmobility 	totalDistance 	3409.2448048853
scalar RSUExampleScenario.node[76].veinsmobility 	totalCO2Emission 	703.38968071499
scalar RSUExampleScenario.node[77].veinsmobility 	startTime 	462.1
scalar RSUExampleScenario.node[77].veinsmobility 	totalTime 	226.9
scalar RSUExampleScenario.node[77].veinsmobility 	stopTime 	689.1
scalar RSUExampleScenario.node[77].veinsmobility 	minSpeed 	0.25878318361565
scalar RSUExampleScenario.node[77].veinsmobility 	maxSpeed 	18.999893551497
scalar RSUExampleScenario.node[77].veinsmobility 	totalDistance 	3409.3130541292
scalar RSUExampleScenario.node[77].veinsmobility 	totalCO2Emission 	704.62966980169
scalar RSUExampleScenario.node[78].veinsmobility 	startTime 	468.1
scalar RSUExampleScenario.node[78].veinsmobility 	totalTime 	226.9
scalar RSUExampleScenario.node[78].veinsmobility 	stopTime 	695.1
scalar RSUExampleScenario.node[78].veinsmobility 	minSpeed 	0.25875271745538
scalar RSUExampleScenario.node[78].veinsmobility 	maxSpeed 	18.999638107633
scalar RSUExampleScenario.node[78].veinsmobility 	totalDistance 	3409.3208340037
scalar RSUExampleScenario.node[78].veinsmobility 	totalCO2Emission 	707.15753252796
scalar RSUExampleScenario.node[79].veinsmobility 	startTime 	474.1
scalar RSUExampleScenario.node[79].veinsmobility 	totalTime 	227
scalar RSUExampleScenario.node[79].veinsmobility 	stopTime 	701.2
scalar RSUExampleScenario.node[79].veinsmobility 	minSpeed 	0.25696102081519
scalar RSUExampleScenario.node[79].veinsmobility 	maxSpeed 	18.999530428615
scalar RSUExampleScenario.node[79].veinsmobility 	totalDistance 	3409.4639271243
scalar RSUExampleScenario.node[79].veinsmobility 	totalCO2Emission 	705.1013475666
scalar RSUExampleScenario.node[80].veinsmobility 	startTime 	480.1
scalar RSUExampleScenario.node[80].veinsmobility 	totalTime 	227
scalar RSUExampleScenario.node[80].veinsmobility 	stopTime 	707.2
scalar RSUExampleScenario.node[80].veinsmobility 	minSpeed 	0.25161603830662
scalar RSUExampleScenario.node[80].veinsmobility 	maxSpeed 	18.999988796215
scalar RSUExampleScenario.node[80].veinsmobility 	totalDistance 	3409.6793489791
scalar RSUExampleScenario.node[80].veinsmobility 	totalCO2Emission 	705.46471770167
scalar RSUExampleScenario.node[81].veinsmobility 	startTime 	486.1
scalar RSUExampleScenario.node[81].veinsmobility 	totalTime 	227.1
scalar RSUExampleScenario.node[81].veinsmobility 	stopTime 	713.3
scalar RSUExampleScenario.node[81].veinsmobility 	minSpeed 	0.25913397526299
scalar RSUExampleScenario.node[81].veinsmobility 	maxSpeed 	18.999935991387
scalar RSUExampleScenario.node[81].veinsmobility 	totalDistance 	3409.4689526065
scalar RSUExampleScenario.node[81].veinsmobility 	totalCO2Emission 	707.24818089628
scalar RSUExampleScenario.node[82].veinsmobility 	startTime 	492.1
scalar RSUExampleScenario.node[82].veinsmobility 	totalTime 	227
scalar RSUExampleScenario.node[82].veinsmobility 	stopTime 	719.2
scalar RSUExampleScenario.node[82].veinsmobility 	minSpeed 	0.25218256354565
scalar RSUExampleScenario.node[82].veinsmobility 	maxSpeed 	18.999314071252
scalar RSUExampleScenario.node[82].veinsmobility 	totalDistance 	3409.373439182
scalar RSUExampleScenario.node[82].veinsmobility 	totalCO2Emission 	707.40689873588
scalar RSUExampleScenario.node[83].veinsmobility 	startTime 	498.1
scalar RSUExampleScenario.node[83].veinsmobility 	totalTime 	227
scalar RSUExampleScenario.node[83].veinsmobility 	stopTime 	725.2
scalar RSUExampleScenario.node[83].veinsmobility 	minSpeed 	0.25158893243736
scalar RSUExampleScenario.node[83].veinsmobility 	maxSpeed 	18.999141378754
scalar RSUExampleScenario.node[83].veinsmobility 	totalDistance 	3409.5218290067
scalar RSUExampleScenario.node[83].veinsmobility 	totalCO2Emission 	709.72544828838
scalar RSUExampleScenario.node[84].veinsmobility 	startTime 	504.1
scalar RSUExampleScenario.node[84].veinsmobility 	totalTime 	226.8
scalar RSUExampleScenario.node[84].veinsmobility 	stopTime 	731
scalar RSUExampleScenario.node[84].veinsmobility 	minSpeed 	0.25054449009523
scalar RSUExampleScenario.node[84].veinsmobility 	maxSpeed 	18.999971969668
scalar RSUExampleScenario.node[84].veinsmobility 	totalDistance 	3409.3455215047
scalar RSUExampleScenario.node[84].veinsmobility 	totalCO2Emission 	706.60918393751
scalar RSUExampleScenario.node[85].veinsmobility 	startTime 	510.1
scalar RSUExampleScenario.node[85].veinsmobility 	totalTime 	226.8
scalar RSUExampleScenario.node[85].veinsmobility 	stopTime 	737
scalar RSUExampleScenario.node[85].veinsmobility 	minSpeed 	0.25750459288573
scalar RSUExampleScenario.node[85].veinsmobility 	maxSpeed 	18.999466285673
scalar RSUExampleScenario.node[85].veinsmobility 	totalDistance 	3409.3510397442
scalar RSUExampleScenario.node[85].veinsmobility 	totalCO2Emission 	709.92577556923
scalar RSUExampleScenario.node[86].veinsmobility 	startTime 	516.1
scalar RSUExampleScenario.node[86].veinsmobility 	totalTime 	227
scalar RSUExampleScenario.node[86].veinsmobility 	stopTime 	743.2
scalar RSUExampleScenario.node[86].veinsmobility 	minSpeed 	0.25011782200052
scalar RSUExampleScenario.node[86].veinsmobility 	maxSpeed 	18.999683343074
scalar RSUExampleScenario.node[86].veinsmobility 	totalDistance 	3409.2140487417
scalar RSUExampleScenario.node[86].veinsmobility 	totalCO2Emission 	705.7119107133
scalar RSUExampleScenario.node[87].veinsmobility 	startTime 	522.1
scalar RSUExampleScenario.node[87].veinsmobility 	totalTime 	226.8
scalar RSUExampleScenario.node[87].veinsmobility 	stopTime 	749
scalar RSUExampleScenario.node[87].veinsmobility 	minSpeed 	0.25569021985959
scalar RSUExampleScenario.node[87].veinsmobility 	maxSpeed 	18.999609334162
scalar RSUExampleScenario.node[87].veinsmobility 	totalDistance 	3409.2941582888
scalar RSUExampleScenario.node[87].veinsmobility 	totalCO2Emission 	707.38701646648
scalar RSUExampleScenario.node[88].veinsmobility 	startTime 	528.1
scalar RSUExampleScenario.node[88].veinsmobility 	totalTime 	226.9
scalar RSUExampleScenario.node[88].veinsmobility 	stopTime 	755.1
scalar RSUExampleScenario.node[88].veinsmobility 	minSpeed 	0.25763626278867
scalar RSUExampleScenario.node[88].veinsmobility 	maxSpeed 	18.999362355981
scalar RSUExampleScenario.node[88].veinsmobility 	totalDistance 	3409.7707712944
scalar RSUExampleScenario.node[88].veinsmobility 	totalCO2Emission 	703.85174012232
scalar RSUExampleScenario.node[89].veinsmobility 	startTime 	534.1
scalar RSUExampleScenario.node[89].veinsmobility 	totalTime 	227
scalar RSUExampleScenario.node[89].veinsmobility 	stopTime 	761.2
scalar RSUExampleScenario.node[89].veinsmobility 	minSpeed 	0.25306862608436
scalar RSUExampleScenario.node[89].veinsmobility 	maxSpeed 	18.999928357226
scalar RSUExampleScenario.node[89].veinsmobility 	totalDistance 	3409.7639553809
scalar RSUExampleScenario.node[89].veinsmobility 	totalCO2Emission 	709.21143324133
scalar RSUExampleScenario.node[90].veinsmobility 	startTime 	540.1
scalar RSUExampleScenario.node[90].veinsmobility 	totalTime 	227.2
scalar RSUExampleScenario.node[90].veinsmobility 	stopTime 	767.4
scalar RSUExampleScenario.node[90].veinsmobility 	minSpeed 	0.25118983127503
scalar RSUExampleScenario.node[90].veinsmobility 	maxSpeed 	18.999278728387
scalar RSUExampleScenario.node[90].veinsmobility 	totalDistance 	3409.6215072751
scalar RSUExampleScenario.node[90].veinsmobility 	totalCO2Emission 	708.71096716082
scalar RSUExampleScenario.node[91].veinsmobility 	startTime 	546.1
scalar RSUExampleScenario.node[91].veinsmobility 	totalTime 	226.8
scalar RSUExampleScenario.node[91].veinsmobility 	stopTime 	773
scalar RSUExampleScenario.node[91].veinsmobility 	minSpeed 	0.2568043928924
scalar RSUExampleScenario.node[91].veinsmobility 	maxSpeed 	18.999849208749
scalar RSUExampleScenario.node[91].veinsmobility 	totalDistance 	3409.972623821
scalar RSUExampleScenario.node[91].veinsmobility 	totalCO2Emission 	709.42858919379
scalar RSUExampleScenario.node[92].veinsmobility 	startTime 	552.1
scalar RSUExampleScenario.node[92].veinsmobility 	totalTime 	227
scalar RSUExampleScenario.node[92].veinsmobility 	stopTime 	779.2
scalar RSUExampleScenario.node[92].veinsmobility 	minSpeed 	0.25697441701312
scalar RSUExampleScenario.node[92].veinsmobility 	maxSpeed 	18.999746036695
scalar RSUExampleScenario.node[92].veinsmobility 	totalDistance 	3409.3400561675
scalar RSUExampleScenario.node[92].veinsmobility 	totalCO2Emission 	709.50597982277
scalar RSUExampleScenario.node[93].veinsmobility 	startTime 	558.1
scalar RSUExampleScenario.node[93].veinsmobility 	totalTime 	227.2
scalar RSUExampleScenario.node[93].veinsmobility 	stopTime 	785.4
scalar RSUExampleScenario.node[93].veinsmobility 	minSpeed 	0.24949550220417
scalar RSUExampleScenario.node[93].veinsmobility 	maxSpeed 	18.999511115584
scalar RSUExampleScenario.node[93].veinsmobility 	totalDistance 	3409.2406024305
scalar RSUExampleScenario.node[93].veinsmobility 	totalCO2Emission 	707.52832970571
scalar RSUExampleScenario.node[94].veinsmobility 	startTime 	564.1
scalar RSUExampleScenario.node[94].veinsmobility 	totalTime 	227
scalar RSUExampleScenario.node[94].veinsmobility 	stopTime 	791.2
scalar RSUExampleScenario.node[94].veinsmobility 	minSpeed 	0.25948810604098
scalar RSUExampleScenario.node[94].veinsmobility 	maxSpeed 	18.999874999644
scalar RSUExampleScenario.node[94].veinsmobility 	totalDistance 	3409.4377647683
scalar RSUExampleScenario.node[94].veinsmobility 	totalCO2Emission 	705.83997853014
scalar RSUExampleScenario.node[95].veinsmobility 	startTime 	570.1
scalar RSUExampleScenario.node[95].veinsmobility 	totalTime 	226.9
scalar RSUExampleScenario.node[95].veinsmobility 	stopTime 	797.1
scalar RSUExampleScenario.node[95].veinsmobility 	minSpeed 	0.25417112376005
scalar RSUExampleScenario.node[95].veinsmobility 	maxSpeed 	18.99992900705
scalar RSUExampleScenario.node[95].veinsmobility 	totalDistance 	3409.5468454846
scalar RSUExampleScenario.node[95].veinsmobility 	totalCO2Emission 	707.62888836813
scalar RSUExampleScenario.node[96].veinsmobility 	startTime 	576.1
scalar RSUExampleScenario.node[96].veinsmobility 	totalTime 	227.1
scalar RSUExampleScenario.node[96].veinsmobility 	stopTime 	803.3
scalar RSUExampleScenario.node[96].veinsmobility 	minSpeed 	0.25928321574559
scalar RSUExampleScenario.node[96].veinsmobility 	maxSpeed 	18.999998253901
scalar RSUExampleScenario.node[96].veinsmobility 	totalDistance 	3409.4209349232
scalar RSUExampleScenario.node[96].veinsmobility 	totalCO2Emission 	712.47209657513
scalar RSUExampleScenario.node[97].veinsmobility 	startTime 	582.1
scalar RSUExampleScenario.node[97].veinsmobility 	totalTime 	226.8
scalar RSUExampleScenario.node[97].veinsmobility 	stopTime 	809
scalar RSUExampleScenario.node[97].veinsmobility 	minSpeed 	0.25213976335758
scalar RSUExampleScenario.node[97].veinsmobility 	maxSpeed 	18.999772740502
scalar RSUExampleScenario.node[97].veinsmobility 	totalDistance 	3409.4358475979
scalar RSUExampleScenario.node[97].veinsmobility 	totalCO2Emission 	704.21574812553
scalar RSUExampleScenario.node[98].veinsmobility 	startTime 	588.1
scalar RSUExampleScenario.node[98].veinsmobility 	totalTime 	226.9
scalar RSUExampleScenario.node[98].veinsmobility 	stopTime 	815.1
scalar RSUExampleScenario.node[98].veinsmobility 	minSpeed 	0.25963006898947
scalar RSUExampleScenario.node[98].veinsmobility 	maxSpeed 	18.999619024578
scalar RSUExampleScenario.node[98].veinsmobility 	totalDistance 	3409.2455294071
scalar RSUExampleScenario.node[98].veinsmobility 	totalCO2Emission 	703.52625126141
scalar RSUExampleScenario.node[99].veinsmobility 	startTime 	594.1
scalar RSUExampleScenario.node[99].veinsmobility 	totalTime 	226.9
scalar RSUExampleScenario.node[99].veinsmobility 	stopTime 	821.1
scalar RSUExampleScenario.node[99].veinsmobility 	minSpeed 	0.25160069427919
scalar RSUExampleScenario.node[99].veinsmobility 	maxSpeed 	18.999903800932
scalar RSUExampleScenario.node[99].veinsmobility 	totalDistance 	3409.220670517
scalar RSUExampleScenario.node[99].veinsmobility 	totalCO2Emission 	706.52472145075
scalar RSUExampleScenario.node[100].veinsmobility 	startTime 	600.1
scalar RSUExampleScenario.node[100].veinsmobility 	totalTime 	226.9
scalar RSUExampleScenario.node[100].veinsmobility 	stopTime 	827.1
scalar RSUExampleScenario.node[100].veinsmobility 	minSpeed 	0.25640661969851
scalar RSUExampleScenario.node[100].veinsmobility 	maxSpeed 	18.99962748687
scalar RSUExampleScenario.node[100].veinsmobility 	totalDistance 	3409.5494748843
scalar RSUExampleScenario.node[100].veinsmobility 	totalCO2Emission 	705.8211303601
scalar RSUExampleScenario.node[101].veinsmobility 	startTime 	606.1
scalar RSUExampleScenario.node[101].veinsmobility 	totalTime 	226.7
scalar RSUExampleScenario.node[101].veinsmobility 	stopTime 	832.9
scalar RSUExampleScenario.node[101].veinsmobility 	minSpeed 	0.25662898353138
scalar RSUExampleScenario.node[101].veinsmobility 	maxSpeed 	18.999161260945
scalar RSUExampleScenario.node[101].veinsmobility 	totalDistance 	3409.3172551223
scalar RSUExampleScenario.node[101].veinsmobility 	totalCO2Emission 	704.37081023673
scalar RSUExampleScenario.node[102].veinsmobility 	startTime 	612.1
scalar RSUExampleScenario.node[102].veinsmobility 	totalTime 	227
scalar RSUExampleScenario.node[102].veinsmobility 	stopTime 	839.2
scalar RSUExampleScenario.node[102].veinsmobility 	minSpeed 	0.25404296955606
scalar RSUExampleScenario.node[102].veinsmobility 	maxSpeed 	18.999990417762
scalar RSUExampleScenario.node[102].veinsmobility 	totalDistance 	3409.3625224304
scalar RSUExampleScenario.node[102].veinsmobility 	totalCO2Emission 	705.68312196879
scalar RSUExampleScenario.node[103].veinsmobility 	startTime 	618.1
scalar RSUExampleScenario.node[103].veinsmobility 	totalTime 	226.8
scalar RSUExampleScenario.node[103].veinsmobility 	stopTime 	845
scalar RSUExampleScenario.node[103].veinsmobility 	minSpeed 	0.25268330625584
scalar RSUExampleScenario.node[103].veinsmobility 	maxSpeed 	18.999951818152
scalar RSUExampleScenario.node[103].veinsmobility 	totalDistance 	3409.459957903
scalar RSUExampleScenario.node[103].veinsmobility 	totalCO2Emission 	707.66968429952
scalar RSUExampleScenario.node[104].veinsmobility 	startTime 	624.1
scalar RSUExampleScenario.node[104].veinsmobility 	totalTime 	226.7
scalar RSUExampleScenario.node[104].veinsmobility 	stopTime 	850.9
scalar RSUExampleScenario.node[104].veinsmobility 	minSpeed 	0.2543928626983
scalar RSUExampleScenario.node[104].veinsmobility 	maxSpeed 	18.999478249063
scalar RSUExampleScenario.node[104].veinsmobility 	totalDistance 	3409.4978809877
scalar RSUExampleScenario.node[104].veinsmobility 	totalCO2Emission 	706.87383325338
scalar RSUExampleScenario.node[105].veinsmobility 	startTime 	630.1
scalar RSUExampleScenario.node[105].veinsmobility 	totalTime 	226.7
scalar RSUExampleScenario.node[105].veinsmobility 	stopTime 	856.9
scalar RSUExampleScenario.node[105].veinsmobility 	minSpeed 	0.25239540331834
scalar RSUExampleScenario.node[105].veinsmobility 	maxSpeed 	18.999910406345
scalar RSUExampleScenario.node[105].veinsmobility 	totalDistance 	3409.6759212129
scalar RSUExampleScenario.node[105].veinsmobility 	totalCO2Emission 	707.45820433531
scalar RSUExampleScenario.node[106].veinsmobility 	startTime 	636.1
scalar RSUExampleScenario.node[106].veinsmobility 	totalTime 	226.7
scalar RSUExampleScenario.node[106].veinsmobility 	stopTime 	862.9
scalar RSUExampleScenario.node[106].veinsmobility 	minSpeed 	0.25928145679133
scalar RSUExampleScenario.node[106].veinsmobility 	maxSpeed 	18.999927707131
scalar RSUExampleScenario.node[106].veinsmobility 	totalDistance 	3409.6241616397
scalar RSUExampleScenario.node[106].veinsmobility 	totalCO2Emission 	707.53872611645
scalar RSUExampleScenario.node[107].veinsmobility 	startTime 	642.1
scalar RSUExampleScenario.node[107].veinsmobility 	totalTime 	226.8
scalar RSUExampleScenario.node[107].veinsmobility 	stopTime 	869
scalar RSUExampleScenario.node[107].veinsmobility 	minSpeed 	0.24924364944617
scalar RSUExampleScenario.node[107].veinsmobility 	maxSpeed 	18.999959736711
scalar RSUExampleScenario.node[107].veinsmobility 	totalDistance 	3409.441801012
scalar RSUExampleScenario.node[107].veinsmobility 	totalCO2Emission 	707.93094754328
scalar RSUExampleScenario.node[108].veinsmobility 	startTime 	648.1
scalar RSUExampleScenario.node[108].veinsmobility 	totalTime 	226.9
scalar RSUExampleScenario.node[108].veinsmobility 	stopTime 	875.1
scalar RSUExampleScenario.node[108].veinsmobility 	minSpeed 	0.25319829304889
scalar RSUExampleScenario.node[108].veinsmobility 	maxSpeed 	18.999841820062
scalar RSUExampleScenario.node[108].veinsmobility 	totalDistance 	3409.536530179
scalar RSUExampleScenario.node[108].veinsmobility 	totalCO2Emission 	709.42968065139
scalar RSUExampleScenario.node[109].veinsmobility 	startTime 	654.1
scalar RSUExampleScenario.node[109].veinsmobility 	totalTime 	226.9
scalar RSUExampleScenario.node[109].veinsmobility 	stopTime 	881.1
scalar RSUExampleScenario.node[109].veinsmobility 	minSpeed 	0.25412495808094
scalar RSUExampleScenario.node[109].veinsmobility 	maxSpeed 	18.999865477942
scalar RSUExampleScenario.node[109].veinsmobility 	totalDistance 	3409.4594332894
scalar RSUExampleScenario.node[109].veinsmobility 	totalCO2Emission 	702.71744391136
scalar RSUExampleScenario.node[110].veinsmobility 	startTime 	660.1
scalar RSUExampleScenario.node[110].veinsmobility 	totalTime 	227
scalar RSUExampleScenario.node[110].veinsmobility 	stopTime 	887.2
scalar RSUExampleScenario.node[110].veinsmobility 	minSpeed 	0.25869517647172
scalar RSUExampleScenario.node[110].veinsmobility 	maxSpeed 	18.999701352767
scalar RSUExampleScenario.node[110].veinsmobility 	totalDistance 	3409.7022376791
scalar RSUExampleScenario.node[110].veinsmobility 	totalCO2Emission 	708.59096468929
scalar RSUExampleScenario.node[111].veinsmobility 	startTime 	666.1
scalar RSUExampleScenario.node[111].veinsmobility 	totalTime 	227
scalar RSUExampleScenario.node[111].veinsmobility 	stopTime 	893.2
scalar RSUExampleScenario.node[111].veinsmobility 	minSpeed 	0.25870508907293
scalar RSUExampleScenario.node[111].veinsmobility 	maxSpeed 	18.999822557517
scalar RSUExampleScenario.node[111].veinsmobility 	totalDistance 	3410.0142636333
scalar RSUExampleScenario.node[111].veinsmobility 	totalCO2Emission 	706.76225907809
scalar RSUExampleScenario.node[112].veinsmobility 	startTime 	672.1
scalar RSUExampleScenario.node[112].veinsmobility 	totalTime 	227
scalar RSUExampleScenario.node[112].veinsmobility 	stopTime 	899.2
scalar RSUExampleScenario.node[112].veinsmobility 	minSpeed 	0.24925950021716
scalar RSUExampleScenario.node[112].veinsmobility 	maxSpeed 	18.999359570963
scalar RSUExampleScenario.node[112].veinsmobility 	totalDistance 	3409.7730835262
scalar RSUExampleScenario.node[112].veinsmobility 	totalCO2Emission 	708.77640846579
scalar RSUExampleScenario.node[113].veinsmobility 	startTime 	678.1
scalar RSUExampleScenario.node[113].veinsmobility 	totalTime 	227.1
scalar RSUExampleScenario.node[113].veinsmobility 	stopTime 	905.3
scalar RSUExampleScenario.node[113].veinsmobility 	minSpeed 	0.25165821263753
scalar RSUExampleScenario.node[113].veinsmobility 	maxSpeed 	18.999634229094
scalar RSUExampleScenario.node[113].veinsmobility 	totalDistance 	3409.1644735535
scalar RSUExampleScenario.node[113].veinsmobility 	totalCO2Emission 	702.05557699472
scalar RSUExampleScenario.node[114].veinsmobility 	startTime 	684.1
scalar RSUExampleScenario.node[114].veinsmobility 	totalTime 	227
scalar RSUExampleScenario.node[114].veinsmobility 	stopTime 	911.2
scalar RSUExampleScenario.node[114].veinsmobility 	minSpeed 	0.25985798448813
scalar RSUExampleScenario.node[114].veinsmobility 	maxSpeed 	18.999927141119
scalar RSUExampleScenario.node[114].veinsmobility 	totalDistance 	3409.2173902984
scalar RSUExampleScenario.node[114].veinsmobility 	totalCO2Emission 	710.45979883737
scalar RSUExampleScenario.node[115].veinsmobility 	startTime 	690.1
scalar RSUExampleScenario.node[115].veinsmobility 	totalTime 	226.9
scalar RSUExampleScenario.node[115].veinsmobility 	stopTime 	917.1
scalar RSUExampleScenario.node[115].veinsmobility 	minSpeed 	0.25844556770939
scalar RSUExampleScenario.node[115].veinsmobility 	maxSpeed 	18.999849283784
scalar RSUExampleScenario.node[115].veinsmobility 	totalDistance 	3409.2623594591
scalar RSUExampleScenario.node[115].veinsmobility 	totalCO2Emission 	709.17014409335
scalar RSUExampleScenario.node[116].veinsmobility 	startTime 	696.1
scalar RSUExampleScenario.node[116].veinsmobility 	totalTime 	226.9
scalar RSUExampleScenario.node[116].veinsmobility 	stopTime 	923.1
scalar RSUExampleScenario.node[116].veinsmobility 	minSpeed 	0.25603579903627
scalar RSUExampleScenario.node[116].veinsmobility 	maxSpeed 	18.999762357676
scalar RSUExampleScenario.node[116].veinsmobility 	totalDistance 	3409.4369339611
scalar RSUExampleScenario.node[116].veinsmobility 	totalCO2Emission 	707.37432325734
scalar RSUExampleScenario.node[117].veinsmobility 	startTime 	702.1
scalar RSUExampleScenario.node[117].veinsmobility 	totalTime 	226.8
scalar RSUExampleScenario.node[117].veinsmobility 	stopTime 	929
scalar RSUExampleScenario.node[117].veinsmobility 	minSpeed 	0.2577034271569
scalar RSUExampleScenario.node[117].veinsmobility 	maxSpeed 	18.999837307832
scalar RSUExampleScenario.node[117].veinsmobility 	totalDistance 	3409.696972864
scalar RSUExampleScenario.node[117].veinsmobility 	totalCO2Emission 	706.38873643463
scalar RSUExampleScenario.node[118].veinsmobility 	startTime 	708.1
scalar RSUExampleScenario.node[118].veinsmobility 	totalTime 	226.9
scalar RSUExampleScenario.node[118].veinsmobility 	stopTime 	935.1
scalar RSUExampleScenario.node[118].veinsmobility 	minSpeed 	0.24722942588013
scalar RSUExampleScenario.node[118].veinsmobility 	maxSpeed 	18.999760577101
scalar RSUExampleScenario.node[118].veinsmobility 	totalDistance 	3409.3673723972
scalar RSUExampleScenario.node[118].veinsmobility 	totalCO2Emission 	708.87858874161
scalar RSUExampleScenario.node[119].veinsmobility 	startTime 	714.1
scalar RSUExampleScenario.node[119].veinsmobility 	totalTime 	226.9
scalar RSUExampleScenario.node[119].veinsmobility 	stopTime 	941.1
scalar RSUExampleScenario.node[119].veinsmobility 	minSpeed 	0.24714000094449
scalar RSUExampleScenario.node[119].veinsmobility 	maxSpeed 	18.999972040253
scalar RSUExampleScenario.node[119].veinsmobility 	totalDistance 	3409.1837367739
scalar RSUExampleScenario.node[119].veinsmobility 	totalCO2Emission 	708.83162231367
scalar RSUExampleScenario.node[120].veinsmobility 	startTime 	720.1
scalar RSUExampleScenario.node[120].veinsmobility 	totalTime 	226.7
scalar RSUExampleScenario.node[120].veinsmobility 	stopTime 	946.9
scalar RSUExampleScenario.node[120].veinsmobility 	minSpeed 	0.24893003840582
scalar RSUExampleScenario.node[120].veinsmobility 	maxSpeed 	18.998749434669
scalar RSUExampleScenario.node[120].veinsmobility 	totalDistance 	3409.6233726773
scalar RSUExampleScenario.node[120].veinsmobility 	totalCO2Emission 	707.82725985728
scalar RSUExampleScenario.node[121].veinsmobility 	startTime 	726.1
scalar RSUExampleScenario.node[121].veinsmobility 	totalTime 	226.9
scalar RSUExampleScenario.node[121].veinsmobility 	stopTime 	953.1
scalar RSUExampleScenario.node[121].veinsmobility 	minSpeed 	0.25565830741031
scalar RSUExampleScenario.node[121].veinsmobility 	maxSpeed 	18.999123795175
scalar RSUExampleScenario.node[121].veinsmobility 	totalDistance 	3409.7820561891
scalar RSUExampleScenario.node[121].veinsmobility 	totalCO2Emission 	708.37118926914
scalar RSUExampleScenario.node[122].veinsmobility 	startTime 	732.1
scalar RSUExampleScenario.node[122].veinsmobility 	totalTime 	226.8
scalar RSUExampleScenario.node[122].veinsmobility 	stopTime 	959
scalar RSUExampleScenario.node[122].veinsmobility 	minSpeed 	0.2519980641976
scalar RSUExampleScenario.node[122].veinsmobility 	maxSpeed 	18.999519827405
scalar RSUExampleScenario.node[122].veinsmobility 	totalDistance 	3409.6466611618
scalar RSUExampleScenario.node[122].veinsmobility 	totalCO2Emission 	703.61959712107
scalar RSUExampleScenario.node[123].veinsmobility 	startTime 	738.1
scalar RSUExampleScenario.node[123].veinsmobility 	totalTime 	226.8
scalar RSUExampleScenario.node[123].veinsmobility 	stopTime 	965
scalar RSUExampleScenario.node[123].veinsmobility 	minSpeed 	0.25565633704932
scalar RSUExampleScenario.node[123].veinsmobility 	maxSpeed 	18.999672695342
scalar RSUExampleScenario.node[123].veinsmobility 	totalDistance 	3409.2342333068
scalar RSUExampleScenario.node[123].veinsmobility 	totalCO2Emission 	702.94318077976
scalar RSUExampleScenario.node[124].veinsmobility 	startTime 	744.1
scalar RSUExampleScenario.node[124].veinsmobility 	totalTime 	226.9
scalar RSUExampleScenario.node[124].veinsmobility 	stopTime 	971.1
scalar RSUExampleScenario.node[124].veinsmobility 	minSpeed 	0.2516496510054
scalar RSUExampleScenario.node[124].veinsmobility 	maxSpeed 	18.999918077916
scalar RSUExampleScenario.node[124].veinsmobility 	totalDistance 	3409.5380114486
scalar RSUExampleScenario.node[124].veinsmobility 	totalCO2Emission 	707.97069059707
scalar RSUExampleScenario.node[125].veinsmobility 	startTime 	750.1
scalar RSUExampleScenario.node[125].veinsmobility 	totalTime 	227
scalar RSUExampleScenario.node[125].veinsmobility 	stopTime 	977.2
scalar RSUExampleScenario.node[125].veinsmobility 	minSpeed 	0.25802716058888
scalar RSUExampleScenario.node[125].veinsmobility 	maxSpeed 	18.999231970769
scalar RSUExampleScenario.node[125].veinsmobility 	totalDistance 	3409.3300381377
scalar RSUExampleScenario.node[125].veinsmobility 	totalCO2Emission 	709.4563188694
scalar RSUExampleScenario.node[126].veinsmobility 	startTime 	756.1
scalar RSUExampleScenario.node[126].veinsmobility 	totalTime 	227
scalar RSUExampleScenario.node[126].veinsmobility 	stopTime 	983.2
scalar RSUExampleScenario.node[126].veinsmobility 	minSpeed 	0.2510442944828
scalar RSUExampleScenario.node[126].veinsmobility 	maxSpeed 	18.999418372454
scalar RSUExampleScenario.node[126].veinsmobility 	totalDistance 	3409.4277119213
scalar RSUExampleScenario.node[126].veinsmobility 	totalCO2Emission 	713.81353175237
scalar RSUExampleScenario.node[127].veinsmobility 	startTime 	762.1
scalar RSUExampleScenario.node[127].veinsmobility 	totalTime 	226.8
scalar RSUExampleScenario.node[127].veinsmobility 	stopTime 	989
scalar RSUExampleScenario.node[127].veinsmobility 	minSpeed 	0.25570691479556
scalar RSUExampleScenario.node[127].veinsmobility 	maxSpeed 	18.999820781089
scalar RSUExampleScenario.node[127].veinsmobility 	totalDistance 	3409.7841996231
scalar RSUExampleScenario.node[127].veinsmobility 	totalCO2Emission 	706.94243986717
scalar RSUExampleScenario.node[128].veinsmobility 	startTime 	768.1
scalar RSUExampleScenario.node[128].veinsmobility 	totalTime 	226.8
scalar RSUExampleScenario.node[128].veinsmobility 	stopTime 	995
scalar RSUExampleScenario.node[128].veinsmobility 	minSpeed 	0.25344227005634
scalar RSUExampleScenario.node[128].veinsmobility 	maxSpeed 	18.99966496275
scalar RSUExampleScenario.node[128].veinsmobility 	totalDistance 	3409.1906571858
scalar RSUExampleScenario.node[128].veinsmobility 	totalCO2Emission 	706.59802447969
scalar RSUExampleScenario.node[129].veinsmobility 	startTime 	774.1
scalar RSUExampleScenario.node[129].veinsmobility 	totalTime 	227
scalar RSUExampleScenario.node[129].veinsmobility 	stopTime 	1001.2
scalar RSUExampleScenario.node[129].veinsmobility 	minSpeed 	0.25835033353954
scalar RSUExampleScenario.node[129].veinsmobility 	maxSpeed 	18.999970091267
scalar RSUExampleScenario.node[129].veinsmobility 	totalDistance 	3409.7411996535
scalar RSUExampleScenario.node[129].veinsmobility 	totalCO2Emission 	709.67774813034
scalar RSUExampleScenario.node[130].veinsmobility 	startTime 	780.1
scalar RSUExampleScenario.node[130].veinsmobility 	totalTime 	227
scalar RSUExampleScenario.node[130].veinsmobility 	stopTime 	1007.2
scalar RSUExampleScenario.node[130].veinsmobility 	minSpeed 	0.25111744064302
scalar RSUExampleScenario.node[130].veinsmobility 	maxSpeed 	18.999767386611
scalar RSUExampleScenario.node[130].veinsmobility 	totalDistance 	3409.2854343837
scalar RSUExampleScenario.node[130].veinsmobility 	totalCO2Emission 	706.85740508113
scalar RSUExampleScenario.node[131].veinsmobility 	startTime 	786.1
scalar RSUExampleScenario.node[131].veinsmobility 	totalTime 	227
scalar RSUExampleScenario.node[131].veinsmobility 	stopTime 	1013.2
scalar RSUExampleScenario.node[131].veinsmobility 	minSpeed 	0.25610524488101
scalar RSUExampleScenario.node[131].veinsmobility 	maxSpeed 	18.999987978465
scalar RSUExampleScenario.node[131].veinsmobility 	totalDistance 	3409.3322407429
scalar RSUExampleScenario.node[131].veinsmobility 	totalCO2Emission 	709.58978825545
scalar RSUExampleScenario.node[132].veinsmobility 	startTime 	792.1
scalar RSUExampleScenario.node[132].veinsmobility 	totalTime 	226.7
scalar RSUExampleScenario.node[132].veinsmobility 	stopTime 	1018.9
scalar RSUExampleScenario.node[132].veinsmobility 	minSpeed 	0.25113531401753
scalar RSUExampleScenario.node[132].veinsmobility 	maxSpeed 	18.999985210034
scalar RSUExampleScenario.node[132].veinsmobility 	totalDistance 	3409.8865401951
scalar RSUExampleScenario.node[132].veinsmobility 	totalCO2Emission 	708.15151924317
scalar RSUExampleScenario.node[133].veinsmobility 	startTime 	798.1
scalar RSUExampleScenario.node[133].veinsmobility 	totalTime 	227
scalar RSUExampleScenario.node[133].veinsmobility 	stopTime 	1025.2
scalar RSUExampleScenario.node[133].veinsmobility 	minSpeed 	0.24827495228825
scalar RSUExampleScenario.node[133].veinsmobility 	maxSpeed 	18.999593410054
scalar RSUExampleScenario.node[133].veinsmobility 	totalDistance 	3409.5623718792
scalar RSUExampleScenario.node[133].veinsmobility 	totalCO2Emission 	709.15357076074
scalar RSUExampleScenario.node[134].veinsmobility 	startTime 	804.1
scalar RSUExampleScenario.node[134].veinsmobility 	totalTime 	226.8
scalar RSUExampleScenario.node[134].veinsmobility 	stopTime 	1031
scalar RSUExampleScenario.node[134].veinsmobility 	minSpeed 	0.25341320958058
scalar RSUExampleScenario.node[134].veinsmobility 	maxSpeed 	18.999763994841
scalar RSUExampleScenario.node[134].veinsmobility 	totalDistance 	3409.2522719906
scalar RSUExampleScenario.node[134].veinsmobility 	totalCO2Emission 	702.99091576832
scalar RSUExampleScenario.node[135].veinsmobility 	startTime 	810.1
scalar RSUExampleScenario.node[135].veinsmobility 	totalTime 	226.6
scalar RSUExampleScenario.node[135].veinsmobility 	stopTime 	1036.8
scalar RSUExampleScenario.node[135].veinsmobility 	minSpeed 	0.24923523306707
scalar RSUExampleScenario.node[135].veinsmobility 	maxSpeed 	18.999744756662
scalar RSUExampleScenario.node[135].veinsmobility 	totalDistance 	3409.392117485
scalar RSUExampleScenario.node[135].veinsmobility 	totalCO2Emission 	708.34612551725
scalar RSUExampleScenario.node[136].veinsmobility 	startTime 	816.1
scalar RSUExampleScenario.node[136].veinsmobility 	totalTime 	227
scalar RSUExampleScenario.node[136].veinsmobility 	stopTime 	1043.2
scalar RSUExampleScenario.node[136].veinsmobility 	minSpeed 	0.25291530032293
scalar RSUExampleScenario.node[136].veinsmobility 	maxSpeed 	18.999965668267
scalar RSUExampleScenario.node[136].veinsmobility 	totalDistance 	3409.6281247972
scalar RSUExampleScenario.node[136].veinsmobility 	totalCO2Emission 	705.82128653074
scalar RSUExampleScenario.node[137].veinsmobility 	startTime 	822.1
scalar RSUExampleScenario.node[137].veinsmobility 	totalTime 	226.9
scalar RSUExampleScenario.node[137].veinsmobility 	stopTime 	1049.1
scalar RSUExampleScenario.node[137].veinsmobility 	minSpeed 	0.25222650297219
scalar RSUExampleScenario.node[137].veinsmobility 	maxSpeed 	18.999853800766
scalar RSUExampleScenario.node[137].veinsmobility 	totalDistance 	3409.4292134532
scalar RSUExampleScenario.node[137].veinsmobility 	totalCO2Emission 	700.556560724
scalar RSUExampleScenario.node[138].veinsmobility 	startTime 	828.1
scalar RSUExampleScenario.node[138].veinsmobility 	totalTime 	227.2
scalar RSUExampleScenario.node[138].veinsmobility 	stopTime 	1055.4
scalar RSUExampleScenario.node[138].veinsmobility 	minSpeed 	0.24815212832461
scalar RSUExampleScenario.node[138].veinsmobility 	maxSpeed 	18.99886908985
scalar RSUExampleScenario.node[138].veinsmobility 	totalDistance 	3409.6195595546
scalar RSUExampleScenario.node[138].veinsmobility 	totalCO2Emission 	703.53466974516
scalar RSUExampleScenario.node[139].veinsmobility 	startTime 	834.1
scalar RSUExampleScenario.node[139].veinsmobility 	totalTime 	226.7
scalar RSUExampleScenario.node[139].veinsmobility 	stopTime 	1060.9
scalar RSUExampleScenario.node[139].veinsmobility 	minSpeed 	0.25630157175241
scalar RSUExampleScenario.node[139].veinsmobility 	maxSpeed 	18.999947601247
scalar RSUExampleScenario.node[139].veinsmobility 	totalDistance 	3409.8038394762
scalar RSUExampleScenario.node[139].veinsmobility 	totalCO2Emission 	703.56084795428
scalar RSUExampleScenario.node[140].veinsmobility 	startTime 	840.1
scalar RSUExampleScenario.node[140].veinsmobility 	totalTime 	226.9
scalar RSUExampleScenario.node[140].veinsmobility 	stopTime 	1067.1
scalar RSUExampleScenario.node[140].veinsmobility 	minSpeed 	0.24864440754661
scalar RSUExampleScenario.node[140].veinsmobility 	maxSpeed 	18.999858903917
scalar RSUExampleScenario.node[140].veinsmobility 	totalDistance 	3409.7357148014
scalar RSUExampleScenario.node[140].veinsmobility 	totalCO2Emission 	705.42838976551
scalar RSUExampleScenario.node[141].veinsmobility 	startTime 	846.1
scalar RSUExampleScenario.node[141].veinsmobility 	totalTime 	226.7
scalar RSUExampleScenario.node[141].veinsmobility 	stopTime 	1072.9
scalar RSUExampleScenario.node[141].veinsmobility 	minSpeed 	0.24728730285959
scalar RSUExampleScenario.node[141].veinsmobility 	maxSpeed 	18.999704886251
scalar RSUExampleScenario.node[141].veinsmobility 	totalDistance 	3409.2742247712
scalar RSUExampleScenario.node[141].veinsmobility 	totalCO2Emission 	705.1672636332
scalar RSUExampleScenario.node[142].veinsmobility 	startTime 	852.1
scalar RSUExampleScenario.node[142].veinsmobility 	totalTime 	226.7
scalar RSUExampleScenario.node[142].veinsmobility 	stopTime 	1078.9
scalar RSUExampleScenario.node[142].veinsmobility 	minSpeed 	0.25410854033614
scalar RSUExampleScenario.node[142].veinsmobility 	maxSpeed 	18.999860920219
scalar RSUExampleScenario.node[142].veinsmobility 	totalDistance 	3409.2632803979
scalar RSUExampleScenario.node[142].veinsmobility 	totalCO2Emission 	709.96190361521
scalar RSUExampleScenario.node[143].veinsmobility 	startTime 	858.1
scalar RSUExampleScenario.node[143].veinsmobility 	totalTime 	226.7
scalar RSUExampleScenario.node[143].veinsmobility 	stopTime 	1084.9
scalar RSUExampleScenario.node[143].veinsmobility 	minSpeed 	0.2542736560523
scalar RSUExampleScenario.node[143].veinsmobility 	maxSpeed 	18.999790117291
scalar RSUExampleScenario.node[143].veinsmobility 	totalDistance 	3409.3174626684
scalar RSUExampleScenario.node[143].veinsmobility 	totalCO2Emission 	707.28337669721
scalar RSUExampleScenario.node[144].veinsmobility 	startTime 	864.1
scalar RSUExampleScenario.node[144].veinsmobility 	totalTime 	226.7
scalar RSUExampleScenario.node[144].veinsmobility 	stopTime 	1090.9
scalar RSUExampleScenario.node[144].veinsmobility 	minSpeed 	0.25157704998669
scalar RSUExampleScenario.node[144].veinsmobility 	maxSpeed 	18.999781024002
scalar RSUExampleScenario.node[144].veinsmobility 	totalDistance 	3409.9024754005
scalar RSUExampleScenario.node[144].veinsmobility 	totalCO2Emission 	708.97077097525
scalar RSUExampleScenario.node[145].veinsmobility 	startTime 	870.1
scalar RSUExampleScenario.node[145].veinsmobility 	totalTime 	227
scalar RSUExampleScenario.node[145].veinsmobility 	stopTime 	1097.2
scalar RSUExampleScenario.node[145].veinsmobility 	minSpeed 	0.24894546379661
scalar RSUExampleScenario.node[145].veinsmobility 	maxSpeed 	18.999697443112
scalar RSUExampleScenario.node[145].veinsmobility 	totalDistance 	3409.8393108539
scalar RSUExampleScenario.node[145].veinsmobility 	totalCO2Emission 	708.15635435321
scalar RSUExampleScenario.node[146].veinsmobility 	startTime 	876.1
scalar RSUExampleScenario.node[146].veinsmobility 	totalTime 	227.2
scalar RSUExampleScenario.node[146].veinsmobility 	stopTime 	1103.4
scalar RSUExampleScenario.node[146].veinsmobility 	minSpeed 	0.25083055808768
scalar RSUExampleScenario.node[146].veinsmobility 	maxSpeed 	18.999354311961
scalar RSUExampleScenario.node[146].veinsmobility 	totalDistance 	3409.5584574173
scalar RSUExampleScenario.node[146].veinsmobility 	totalCO2Emission 	709.80647016816
scalar RSUExampleScenario.node[147].veinsmobility 	startTime 	882.1
scalar RSUExampleScenario.node[147].veinsmobility 	totalTime 	227
scalar RSUExampleScenario.node[147].veinsmobility 	stopTime 	1109.2
scalar RSUExampleScenario.node[147].veinsmobility 	minSpeed 	0.25076078930171
scalar RSUExampleScenario.node[147].veinsmobility 	maxSpeed 	18.999943170256
scalar RSUExampleScenario.node[147].veinsmobility 	totalDistance 	3409.4194928936
scalar RSUExampleScenario.node[147].veinsmobility 	totalCO2Emission 	705.38002093555
scalar RSUExampleScenario.node[148].veinsmobility 	startTime 	888.1
scalar RSUExampleScenario.node[148].veinsmobility 	totalTime 	226.8
scalar RSUExampleScenario.node[148].veinsmobility 	stopTime 	1115
scalar RSUExampleScenario.node[148].veinsmobility 	minSpeed 	0.25257561907778
scalar RSUExampleScenario.node[148].veinsmobility 	maxSpeed 	18.999876047673
scalar RSUExampleScenario.node[148].veinsmobility 	totalDistance 	3409.1890811124
scalar RSUExampleScenario.node[148].veinsmobility 	totalCO2Emission 	704.86180091185
scalar RSUExampleScenario.node[149].veinsmobility 	startTime 	894.1
scalar RSUExampleScenario.node[149].veinsmobility 	totalTime 	227.1
scalar RSUExampleScenario.node[149].veinsmobility 	stopTime 	1121.3
scalar RSUExampleScenario.node[149].veinsmobility 	minSpeed 	0.25933183555887
scalar RSUExampleScenario.node[149].veinsmobility 	maxSpeed 	18.999871400176
scalar RSUExampleScenario.node[149].veinsmobility 	totalDistance 	3409.1462335959
scalar RSUExampleScenario.node[149].veinsmobility 	totalCO2Emission 	703.77778467675
scalar RSUExampleScenario.node[150].veinsmobility 	startTime 	900.1
scalar RSUExampleScenario.node[150].veinsmobility 	totalTime 	226.9
scalar RSUExampleScenario.node[150].veinsmobility 	stopTime 	1127.1
scalar RSUExampleScenario.node[150].veinsmobility 	minSpeed 	0.25478200595733
scalar RSUExampleScenario.node[150].veinsmobility 	maxSpeed 	18.999893447768
scalar RSUExampleScenario.node[150].veinsmobility 	totalDistance 	3409.436016915
scalar RSUExampleScenario.node[150].veinsmobility 	totalCO2Emission 	706.65579864446
scalar RSUExampleScenario.node[151].veinsmobility 	startTime 	906.1
scalar RSUExampleScenario.node[151].veinsmobility 	totalTime 	226.5
scalar RSUExampleScenario.node[151].veinsmobility 	stopTime 	1132.7
scalar RSUExampleScenario.node[151].veinsmobility 	minSpeed 	0.25346150513599
scalar RSUExampleScenario.node[151].veinsmobility 	maxSpeed 	18.999816308692
scalar RSUExampleScenario.node[151].veinsmobility 	totalDistance 	3409.4192684541
scalar RSUExampleScenario.node[151].veinsmobility 	totalCO2Emission 	705.56457037823
scalar RSUExampleScenario.node[152].veinsmobility 	startTime 	912.1
scalar RSUExampleScenario.node[152].veinsmobility 	totalTime 	227.1
scalar RSUExampleScenario.node[152].veinsmobility 	stopTime 	1139.3
scalar RSUExampleScenario.node[152].veinsmobility 	minSpeed 	0.25913829879626
scalar RSUExampleScenario.node[152].veinsmobility 	maxSpeed 	18.999920070185
scalar RSUExampleScenario.node[152].veinsmobility 	totalDistance 	3409.4937393288
scalar RSUExampleScenario.node[152].veinsmobility 	totalCO2Emission 	702.86924937841
[...]
scalar RSUExampleScenario.node[262].veinsmobility 	startTime 	1572.1
scalar RSUExampleScenario.node[262].veinsmobility 	totalTime 	226.9
scalar RSUExampleScenario.node[262].veinsmobility 	stopTime 	1799.1
scalar RSUExampleScenario.node[262].veinsmobility 	minSpeed 	0.25775676579424
scalar RSUExampleScenario.node[262].veinsmobility 	maxSpeed 	18.999989631975
scalar RSUExampleScenario.node[262].veinsmobility 	totalDistance 	3409.6270752594
scalar RSUExampleScenario.node[262].veinsmobility 	totalCO2Emission 	706.80557197682
scalar RSUExampleScenario.node[263].veinsmobility 	startTime 	1578.1
scalar RSUExampleScenario.node[263].veinsmobility 	totalTime 	226.9
scalar RSUExampleScenario.node[263].veinsmobility 	stopTime 	1805.1
scalar RSUExampleScenario.node[263].veinsmobility 	minSpeed 	0.24942727771192
scalar RSUExampleScenario.node[263].veinsmobility 	maxSpeed 	18.999109149254
scalar RSUExampleScenario.node[263].veinsmobility 	totalDistance 	3409.9066635195
scalar RSUExampleScenario.node[263].veinsmobility 	totalCO2Emission 	712.57775244081
scalar RSUExampleScenario.node[264].veinsmobility 	startTime 	1584.1
scalar RSUExampleScenario.node[264].veinsmobility 	totalTime 	226.9
scalar RSUExampleScenario.node[264].veinsmobility 	stopTime 	1811.1
scalar RSUExampleScenario.node[264].veinsmobility 	minSpeed 	0.256140203933
scalar RSUExampleScenario.node[264].veinsmobility 	maxSpeed 	18.999965581247
scalar RSUExampleScenario.node[264].veinsmobility 	totalDistance 	3409.565015276
scalar RSUExampleScenario.node[264].veinsmobility 	totalCO2Emission 	707.43940436384
scalar RSUExampleScenario.node[265].veinsmobility 	startTime 	1590.1
scalar RSUExampleScenario.node[265].veinsmobility 	totalTime 	227
scalar RSUExampleScenario.node[265].veinsmobility 	stopTime 	1817.2
scalar RSUExampleScenario.node[265].veinsmobility 	minSpeed 	0.25488064414938
scalar RSUExampleScenario.node[265].veinsmobility 	maxSpeed 	18.999184951999
scalar RSUExampleScenario.node[265].veinsmobility 	totalDistance 	3409.6363781743
scalar RSUExampleScenario.node[265].veinsmobility 	totalCO2Emission 	708.9133457291
scalar RSUExampleScenario.node[266].veinsmobility 	startTime 	1596.1
scalar RSUExampleScenario.node[266].veinsmobility 	totalTime 	227
scalar RSUExampleScenario.node[266].veinsmobility 	stopTime 	1823.2
scalar RSUExampleScenario.node[266].veinsmobility 	minSpeed 	0.25789700835594
scalar RSUExampleScenario.node[266].veinsmobility 	maxSpeed 	18.999961938162
scalar RSUExampleScenario.node[266].veinsmobility 	totalDistance 	3409.4798218732
scalar RSUExampleScenario.node[266].veinsmobility 	totalCO2Emission 	706.76834524583
scalar RSUExampleScenario.node[267].veinsmobility 	startTime 	1602.1
scalar RSUExampleScenario.node[267].veinsmobility 	totalTime 	226.8
scalar RSUExampleScenario.node[267].veinsmobility 	stopTime 	1829
scalar RSUExampleScenario.node[267].veinsmobility 	minSpeed 	0.25946018118062
scalar RSUExampleScenario.node[267].veinsmobility 	maxSpeed 	18.999483432758
scalar RSUExampleScenario.node[267].veinsmobility 	totalDistance 	3409.4128370489
scalar RSUExampleScenario.node[267].veinsmobility 	totalCO2Emission 	703.36319031106
scalar RSUExampleScenario.node[268].veinsmobility 	startTime 	1608.1
scalar RSUExampleScenario.node[268].veinsmobility 	totalTime 	227
scalar RSUExampleScenario.node[268].veinsmobility 	stopTime 	1835.2
scalar RSUExampleScenario.node[268].veinsmobility 	minSpeed 	0.24904527594452
scalar RSUExampleScenario.node[268].veinsmobility 	maxSpeed 	18.999995823472
scalar RSUExampleScenario.node[268].veinsmobility 	totalDistance 	3409.5595121052
scalar RSUExampleScenario.node[268].veinsmobility 	totalCO2Emission 	709.37251688099
scalar RSUExampleScenario.node[269].veinsmobility 	startTime 	1614.1
scalar RSUExampleScenario.node[269].veinsmobility 	totalTime 	226.9
scalar RSUExampleScenario.node[269].veinsmobility 	stopTime 	1841.1
scalar RSUExampleScenario.node[269].veinsmobility 	minSpeed 	0.2500137515862
scalar RSUExampleScenario.node[269].veinsmobility 	maxSpeed 	18.999696221102
scalar RSUExampleScenario.node[269].veinsmobility 	totalDistance 	3409.4603636127
scalar RSUExampleScenario.node[269].veinsmobility 	totalCO2Emission 	705.97989524335
scalar RSUExampleScenario.node[270].veinsmobility 	startTime 	1620.1
scalar RSUExampleScenario.node[270].veinsmobility 	totalTime 	226.8
scalar RSUExampleScenario.node[270].veinsmobility 	stopTime 	1847
scalar RSUExampleScenario.node[270].veinsmobility 	minSpeed 	0.25650394414202
scalar RSUExampleScenario.node[270].veinsmobility 	maxSpeed 	18.999924457984
scalar RSUExampleScenario.node[270].veinsmobility 	totalDistance 	3409.2880039206
scalar RSUExampleScenario.node[270].veinsmobility 	totalCO2Emission 	711.95134038297
scalar RSUExampleScenario.node[271].veinsmobility 	startTime 	1626.1
scalar RSUExampleScenario.node[271].veinsmobility 	totalTime 	226.7
scalar RSUExampleScenario.node[271].veinsmobility 	stopTime 	1852.9
scalar RSUExampleScenario.node[271].veinsmobility 	minSpeed 	0.25982468649768
scalar RSUExampleScenario.node[271].veinsmobility 	maxSpeed 	18.999837993553
scalar RSUExampleScenario.node[271].veinsmobility 	totalDistance 	3409.8341998161
scalar RSUExampleScenario.node[271].veinsmobility 	totalCO2Emission 	705.20925314343
scalar RSUExampleScenario.node[272].veinsmobility 	startTime 	1632.1
scalar RSUExampleScenario.node[272].veinsmobility 	totalTime 	226.8
scalar RSUExampleScenario.node[272].veinsmobility 	stopTime 	1859
scalar RSUExampleScenario.node[272].veinsmobility 	minSpeed 	0.25277506426582
scalar RSUExampleScenario.node[272].veinsmobility 	maxSpeed 	18.999593980212
scalar RSUExampleScenario.node[272].veinsmobility 	totalDistance 	3409.2152498459
scalar RSUExampleScenario.node[272].veinsmobility 	totalCO2Emission 	703.46332300439
scalar RSUExampleScenario.node[273].veinsmobility 	startTime 	1638.1
scalar RSUExampleScenario.node[273].veinsmobility 	totalTime 	226.5
scalar RSUExampleScenario.node[273].veinsmobility 	stopTime 	1864.7
scalar RSUExampleScenario.node[273].veinsmobility 	minSpeed 	0.25586334380019
scalar RSUExampleScenario.node[273].veinsmobility 	maxSpeed 	18.99932283008
scalar RSUExampleScenario.node[273].veinsmobility 	totalDistance 	3409.3697841421
scalar RSUExampleScenario.node[273].veinsmobility 	totalCO2Emission 	705.58715727543
scalar RSUExampleScenario.node[274].veinsmobility 	startTime 	1644.1
scalar RSUExampleScenario.node[274].veinsmobility 	totalTime 	227.2
scalar RSUExampleScenario.node[274].veinsmobility 	stopTime 	1871.4
scalar RSUExampleScenario.node[274].veinsmobility 	minSpeed 	0.25295340992999
scalar RSUExampleScenario.node[274].veinsmobility 	maxSpeed 	18.999908787946
scalar RSUExampleScenario.node[274].veinsmobility 	totalDistance 	3409.5027088333
scalar RSUExampleScenario.node[274].veinsmobility 	totalCO2Emission 	707.06115284024
scalar RSUExampleScenario.node[275].veinsmobility 	startTime 	1650.1
scalar RSUExampleScenario.node[275].veinsmobility 	totalTime 	226.7
scalar RSUExampleScenario.node[275].veinsmobility 	stopTime 	1876.9
scalar RSUExampleScenario.node[275].veinsmobility 	minSpeed 	0.25128343580756
scalar RSUExampleScenario.node[275].veinsmobility 	maxSpeed 	18.999831485483
scalar RSUExampleScenario.node[275].veinsmobility 	totalDistance 	3409.5051894214
scalar RSUExampleScenario.node[275].veinsmobility 	totalCO2Emission 	705.72460770339
scalar RSUExampleScenario.node[276].veinsmobility 	startTime 	1656.1
scalar RSUExampleScenario.node[276].veinsmobility 	totalTime 	227
scalar RSUExampleScenario.node[276].veinsmobility 	stopTime 	1883.2
scalar RSUExampleScenario.node[276].veinsmobility 	minSpeed 	0.24741819154588
scalar RSUExampleScenario.node[276].veinsmobility 	maxSpeed 	18.999899506874
scalar RSUExampleScenario.node[276].veinsmobility 	totalDistance 	3409.5063354532
scalar RSUExampleScenario.node[276].veinsmobility 	totalCO2Emission 	708.54612399495
scalar RSUExampleScenario.node[277].veinsmobility 	startTime 	1662.1
scalar RSUExampleScenario.node[277].veinsmobility 	totalTime 	226.8
scalar RSUExampleScenario.node[277].veinsmobility 	stopTime 	1889
scalar RSUExampleScenario.node[277].veinsmobility 	minSpeed 	0.25829129314958
scalar RSUExampleScenario.node[277].veinsmobility 	maxSpeed 	18.999754907696
scalar RSUExampleScenario.node[277].veinsmobility 	totalDistance 	3409.2308418461
scalar RSUExampleScenario.node[277].veinsmobility 	totalCO2Emission 	706.04519981477
scalar RSUExampleScenario.node[278].veinsmobility 	startTime 	1668.1
scalar RSUExampleScenario.node[278].veinsmobility 	totalTime 	226.7
scalar RSUExampleScenario.node[278].veinsmobility 	stopTime 	1894.9
scalar RSUExampleScenario.node[278].veinsmobility 	minSpeed 	0.24887112825294
scalar RSUExampleScenario.node[278].veinsmobility 	maxSpeed 	18.99920989539
scalar RSUExampleScenario.node[278].veinsmobility 	totalDistance 	3409.3522078044
scalar RSUExampleScenario.node[278].veinsmobility 	totalCO2Emission 	711.87974623441
scalar RSUExampleScenario.node[279].veinsmobility 	startTime 	1674.1
scalar RSUExampleScenario.node[279].veinsmobility 	totalTime 	226.6
scalar RSUExampleScenario.node[279].veinsmobility 	stopTime 	1900.8
scalar RSUExampleScenario.node[279].veinsmobility 	minSpeed 	0.2590670819385
scalar RSUExampleScenario.node[279].veinsmobility 	maxSpeed 	18.999845122602
scalar RSUExampleScenario.node[279].veinsmobility 	totalDistance 	3409.3769249271
scalar RSUExampleScenario.node[279].veinsmobility 	totalCO2Emission 	707.8930285677
scalar RSUExampleScenario.node[280].veinsmobility 	startTime 	1680.1
scalar RSUExampleScenario.node[280].veinsmobility 	totalTime 	226.8
scalar RSUExampleScenario.node[280].veinsmobility 	stopTime 	1907
scalar RSUExampleScenario.node[280].veinsmobility 	minSpeed 	0.25640860356507
scalar RSUExampleScenario.node[280].veinsmobility 	maxSpeed 	18.999521317619
scalar RSUExampleScenario.node[280].veinsmobility 	totalDistance 	3409.21545421
scalar RSUExampleScenario.node[280].veinsmobility 	totalCO2Emission 	706.04925322115
scalar RSUExampleScenario.node[281].veinsmobility 	startTime 	1686.1
scalar RSUExampleScenario.node[281].veinsmobility 	totalTime 	226.8
scalar RSUExampleScenario.node[281].veinsmobility 	stopTime 	1913
scalar RSUExampleScenario.node[281].veinsmobility 	minSpeed 	0.25820595508488
scalar RSUExampleScenario.node[281].veinsmobility 	maxSpeed 	18.999986477839
scalar RSUExampleScenario.node[281].veinsmobility 	totalDistance 	3409.1621086938
scalar RSUExampleScenario.node[281].veinsmobility 	totalCO2Emission 	708.64542510722
scalar RSUExampleScenario.node[282].veinsmobility 	startTime 	1692.1
scalar RSUExampleScenario.node[282].veinsmobility 	totalTime 	226.9
scalar RSUExampleScenario.node[282].veinsmobility 	stopTime 	1919.1
scalar RSUExampleScenario.node[282].veinsmobility 	minSpeed 	0.25737551664026
scalar RSUExampleScenario.node[282].veinsmobility 	maxSpeed 	18.999521040092
scalar RSUExampleScenario.node[282].veinsmobility 	totalDistance 	3409.5755571615
scalar RSUExampleScenario.node[282].veinsmobility 	totalCO2Emission 	707.12495315654
scalar RSUExampleScenario.node[283].veinsmobility 	startTime 	1698.1
scalar RSUExampleScenario.node[283].veinsmobility 	totalTime 	226.9
scalar RSUExampleScenario.node[283].veinsmobility 	stopTime 	1925.1
scalar RSUExampleScenario.node[283].veinsmobility 	minSpeed 	0.25694410562213
scalar RSUExampleScenario.node[283].veinsmobility 	maxSpeed 	18.999961478149
scalar RSUExampleScenario.node[283].veinsmobility 	totalDistance 	3409.6891731552
scalar RSUExampleScenario.node[283].veinsmobility 	totalCO2Emission 	707.53381195595
scalar RSUExampleScenario.node[284].veinsmobility 	startTime 	1704.1
scalar RSUExampleScenario.node[284].veinsmobility 	totalTime 	226.7
scalar RSUExampleScenario.node[284].veinsmobility 	stopTime 	1930.9
scalar RSUExampleScenario.node[284].veinsmobility 	minSpeed 	0.25403885054658
scalar RSUExampleScenario.node[284].veinsmobility 	maxSpeed 	18.999938781369
scalar RSUExampleScenario.node[284].veinsmobility 	totalDistance 	3409.345970134
scalar RSUExampleScenario.node[284].veinsmobility 	totalCO2Emission 	705.76465682527
scalar RSUExampleScenario.node[285].veinsmobility 	startTime 	1710.1
scalar RSUExampleScenario.node[285].veinsmobility 	totalTime 	227.2
scalar RSUExampleScenario.node[285].veinsmobility 	stopTime 	1937.4
scalar RSUExampleScenario.node[285].veinsmobility 	minSpeed 	0.25656568817119
scalar RSUExampleScenario.node[285].veinsmobility 	maxSpeed 	18.999918636694
scalar RSUExampleScenario.node[285].veinsmobility 	totalDistance 	3409.7954558299
scalar RSUExampleScenario.node[285].veinsmobility 	totalCO2Emission 	708.61791588555
scalar RSUExampleScenario.node[286].veinsmobility 	startTime 	1716.1
scalar RSUExampleScenario.node[286].veinsmobility 	totalTime 	226.7
scalar RSUExampleScenario.node[286].veinsmobility 	stopTime 	1942.9
scalar RSUExampleScenario.node[286].veinsmobility 	minSpeed 	0.25065016633505
scalar RSUExampleScenario.node[286].veinsmobility 	maxSpeed 	18.999470737034
scalar RSUExampleScenario.node[286].veinsmobility 	totalDistance 	3409.5817444222
scalar RSUExampleScenario.node[286].veinsmobility 	totalCO2Emission 	706.65744092283
scalar RSUExampleScenario.node[287].veinsmobility 	startTime 	1722.1
scalar RSUExampleScenario.node[287].veinsmobility 	totalTime 	226.9
scalar RSUExampleScenario.node[287].veinsmobility 	stopTime 	1949.1
scalar RSUExampleScenario.node[287].veinsmobility 	minSpeed 	0.25831267999834
scalar RSUExampleScenario.node[287].veinsmobility 	maxSpeed 	18.999626806446
scalar RSUExampleScenario.node[287].veinsmobility 	totalDistance 	3409.7394625341
scalar RSUExampleScenario.node[287].veinsmobility 	totalCO2Emission 	707.74585714671
scalar RSUExampleScenario.node[288].veinsmobility 	startTime 	1728.1
scalar RSUExampleScenario.node[288].veinsmobility 	totalTime 	226.7
scalar RSUExampleScenario.node[288].veinsmobility 	stopTime 	1954.9
scalar RSUExampleScenario.node[288].veinsmobility 	minSpeed 	0.25235465723672
scalar RSUExampleScenario.node[288].veinsmobility 	maxSpeed 	18.99969101619
scalar RSUExampleScenario.node[288].veinsmobility 	totalDistance 	3409.6732907851
scalar RSUExampleScenario.node[288].veinsmobility 	totalCO2Emission 	712.14491143463
scalar RSUExampleScenario.node[289].veinsmobility 	startTime 	1734.1
scalar RSUExampleScenario.node[289].veinsmobility 	totalTime 	226.8
scalar RSUExampleScenario.node[289].veinsmobility 	stopTime 	1961
scalar RSUExampleScenario.node[289].veinsmobility 	minSpeed 	0.25340195276914
scalar RSUExampleScenario.node[289].veinsmobility 	maxSpeed 	18.999995579906
scalar RSUExampleScenario.node[289].veinsmobility 	totalDistance 	3409.7408459358
scalar RSUExampleScenario.node[289].veinsmobility 	totalCO2Emission 	710.18192977094
scalar RSUExampleScenario.node[290].veinsmobility 	startTime 	1740.1
scalar RSUExampleScenario.node[290].veinsmobility 	totalTime 	226.7
scalar RSUExampleScenario.node[290].veinsmobility 	stopTime 	1966.9
scalar RSUExampleScenario.node[290].veinsmobility 	minSpeed 	0.25798940252629
scalar RSUExampleScenario.node[290].veinsmobility 	maxSpeed 	18.999983721303
scalar RSUExampleScenario.node[290].veinsmobility 	totalDistance 	3409.5390493261
scalar RSUExampleScenario.node[290].veinsmobility 	totalCO2Emission 	704.73112925318
scalar RSUExampleScenario.node[291].veinsmobility 	startTime 	1746.1
scalar RSUExampleScenario.node[291].veinsmobility 	totalTime 	227.1
scalar RSUExampleScenario.node[291].veinsmobility 	stopTime 	1973.3
scalar RSUExampleScenario.node[291].veinsmobility 	minSpeed 	0.25727338705747
scalar RSUExampleScenario.node[291].veinsmobility 	maxSpeed 	18.999755118543
scalar RSUExampleScenario.node[291].veinsmobility 	totalDistance 	3409.2370525259
scalar RSUExampleScenario.node[291].veinsmobility 	totalCO2Emission 	709.92095307724
scalar RSUExampleScenario.node[292].veinsmobility 	startTime 	1752.1
scalar RSUExampleScenario.node[292].veinsmobility 	totalTime 	227
scalar RSUExampleScenario.node[292].veinsmobility 	stopTime 	1979.2
scalar RSUExampleScenario.node[292].veinsmobility 	minSpeed 	0.2498012004823
scalar RSUExampleScenario.node[292].veinsmobility 	maxSpeed 	18.999748928891
scalar RSUExampleScenario.node[292].veinsmobility 	totalDistance 	3409.4119587461
scalar RSUExampleScenario.node[292].veinsmobility 	totalCO2Emission 	703.83878852947
scalar RSUExampleScenario.node[293].veinsmobility 	startTime 	1758.1
scalar RSUExampleScenario.node[293].veinsmobility 	totalTime 	227.2
scalar RSUExampleScenario.node[293].veinsmobility 	stopTime 	1985.4
scalar RSUExampleScenario.node[293].veinsmobility 	minSpeed 	0.25970888175815
scalar RSUExampleScenario.node[293].veinsmobility 	maxSpeed 	18.99988352105
scalar RSUExampleScenario.node[293].veinsmobility 	totalDistance 	3409.7562977512
scalar RSUExampleScenario.node[293].veinsmobility 	totalCO2Emission 	709.98213996104
scalar RSUExampleScenario.node[294].veinsmobility 	startTime 	1764.1
scalar RSUExampleScenario.node[294].veinsmobility 	totalTime 	226.7
scalar RSUExampleScenario.node[294].veinsmobility 	stopTime 	1990.9
scalar RSUExampleScenario.node[294].veinsmobility 	minSpeed 	0.25559413039219
scalar RSUExampleScenario.node[294].veinsmobility 	maxSpeed 	18.999983659345
scalar RSUExampleScenario.node[294].veinsmobility 	totalDistance 	3409.5818239297
scalar RSUExampleScenario.node[294].veinsmobility 	totalCO2Emission 	710.49607153025
scalar RSUExampleScenario.node[295].veinsmobility 	startTime 	1770.1
scalar RSUExampleScenario.node[295].veinsmobility 	totalTime 	226.9
scalar RSUExampleScenario.node[295].veinsmobility 	stopTime 	1997.1
scalar RSUExampleScenario.node[295].veinsmobility 	minSpeed 	0.25627735326719
scalar RSUExampleScenario.node[295].veinsmobility 	maxSpeed 	18.999741701139
scalar RSUExampleScenario.node[295].veinsmobility 	totalDistance 	3409.7973087661
scalar RSUExampleScenario.node[295].veinsmobility 	totalCO2Emission 	707.95387457702
scalar RSUExampleScenario.node[296].veinsmobility 	startTime 	1776.1
scalar RSUExampleScenario.node[296].veinsmobility 	totalTime 	223.8
scalar RSUExampleScenario.node[296].veinsmobility 	stopTime 	2000
scalar RSUExampleScenario.node[296].veinsmobility 	minSpeed 	0.25529418565519
scalar RSUExampleScenario.node[296].veinsmobility 	maxSpeed 	18.999991276374
scalar RSUExampleScenario.node[296].veinsmobility 	totalDistance 	3389.7804762801
scalar RSUExampleScenario.node[296].veinsmobility 	totalCO2Emission 	693.52754236444
scalar RSUExampleScenario.node[297].veinsmobility 	startTime 	1782.1
scalar RSUExampleScenario.node[297].veinsmobility 	totalTime 	217.8
scalar RSUExampleScenario.node[297].veinsmobility 	stopTime 	2000
scalar RSUExampleScenario.node[297].veinsmobility 	minSpeed 	0.24721389819565
scalar RSUExampleScenario.node[297].veinsmobility 	maxSpeed 	18.99990770635
scalar RSUExampleScenario.node[297].veinsmobility 	totalDistance 	3324.4151404385
scalar RSUExampleScenario.node[297].veinsmobility 	totalCO2Emission 	685.68195136977
scalar RSUExampleScenario.node[298].veinsmobility 	startTime 	1788.1
scalar RSUExampleScenario.node[298].veinsmobility 	totalTime 	211.8
scalar RSUExampleScenario.node[298].veinsmobility 	stopTime 	2000
scalar RSUExampleScenario.node[298].veinsmobility 	minSpeed 	0.25036885942379
scalar RSUExampleScenario.node[298].veinsmobility 	maxSpeed 	18.999945786227
scalar RSUExampleScenario.node[298].veinsmobility 	totalDistance 	3241.4305776623
scalar RSUExampleScenario.node[298].veinsmobility 	totalCO2Emission 	666.67862997474
scalar RSUExampleScenario.node[299].veinsmobility 	startTime 	1794.1
scalar RSUExampleScenario.node[299].veinsmobility 	totalTime 	205.8
scalar RSUExampleScenario.node[299].veinsmobility 	stopTime 	2000
scalar RSUExampleScenario.node[299].veinsmobility 	minSpeed 	0.25906575265341
scalar RSUExampleScenario.node[299].veinsmobility 	maxSpeed 	18.999231051288
scalar RSUExampleScenario.node[299].veinsmobility 	totalDistance 	3160.1534379568
scalar RSUExampleScenario.node[299].veinsmobility 	totalCO2Emission 	652.0406227328
