version 2
run statisticLeach-263-20150323-05:47:13-8060
attr c 16
attr configname statisticLeach
attr datetime 20150323-05:47:13
attr experiment statisticLeach
attr inifile omnetpp.ini
attr iterationvars "$p=1/15, $c=16"
attr iterationvars2 "$p=1/15, $c=16, $repetition=3"
attr measurement "$p=1/15, $c=16"
attr network RSUExampleScenario
attr p 1/15
attr processid 8060
attr repetition 3
attr replication #3
attr resultdir results
attr runnumber 263
attr seedset 263

scalar . 	c 	16
scalar RSUExampleScenario.node[0].appl 	meanClusterNodes 	1
scalar RSUExampleScenario.node[0].appl 	meanClusterHeadUtility 	9.0667119251526
scalar RSUExampleScenario.node[0].appl 	NumberofCH 	0.10810810810811
scalar RSUExampleScenario.node[0].appl 	NumberofON 	0.16216216216216
scalar RSUExampleScenario.node[0].appl 	NumberofFN 	0.72972972972973
scalar RSUExampleScenario.node[0].veinsmobility 	startTime 	0.1
scalar RSUExampleScenario.node[0].veinsmobility 	totalTime 	449.9
scalar RSUExampleScenario.node[0].veinsmobility 	stopTime 	450
scalar RSUExampleScenario.node[0].veinsmobility 	minSpeed 	0
scalar RSUExampleScenario.node[0].veinsmobility 	maxSpeed 	13.999853646581
scalar RSUExampleScenario.node[0].veinsmobility 	totalDistance 	3130.3942746584
scalar RSUExampleScenario.node[0].veinsmobility 	totalCO2Emission 	837.5312347825
scalar RSUExampleScenario.node[1].appl 	meanClusterNodes 	6.5
scalar RSUExampleScenario.node[1].appl 	meanClusterHeadUtility 	18.403333827957
scalar RSUExampleScenario.node[1].appl 	NumberofCH 	0.054054054054054
scalar RSUExampleScenario.node[1].appl 	NumberofON 	0.13513513513514
scalar RSUExampleScenario.node[1].appl 	NumberofFN 	0.81081081081081
scalar RSUExampleScenario.node[1].veinsmobility 	startTime 	2.5
scalar RSUExampleScenario.node[1].veinsmobility 	totalTime 	447.5
scalar RSUExampleScenario.node[1].veinsmobility 	stopTime 	450
scalar RSUExampleScenario.node[1].veinsmobility 	minSpeed 	0
scalar RSUExampleScenario.node[1].veinsmobility 	maxSpeed 	13.999936031431
scalar RSUExampleScenario.node[1].veinsmobility 	totalDistance 	3080.1365788082
scalar RSUExampleScenario.node[1].veinsmobility 	totalCO2Emission 	827.50630823001
scalar RSUExampleScenario.node[10].appl 	meanClusterNodes 	2.25
scalar RSUExampleScenario.node[10].appl 	meanClusterHeadUtility 	10.221433196002
scalar RSUExampleScenario.node[10].appl 	NumberofCH 	0.10810810810811
scalar RSUExampleScenario.node[10].appl 	NumberofON 	0.48648648648649
scalar RSUExampleScenario.node[10].appl 	NumberofFN 	0.40540540540541
scalar RSUExampleScenario.node[10].veinsmobility 	startTime 	24.2
scalar RSUExampleScenario.node[10].veinsmobility 	totalTime 	425.8
scalar RSUExampleScenario.node[10].veinsmobility 	stopTime 	450
scalar RSUExampleScenario.node[10].veinsmobility 	minSpeed 	0
scalar RSUExampleScenario.node[10].veinsmobility 	maxSpeed 	13.999970982992
scalar RSUExampleScenario.node[10].veinsmobility 	totalDistance 	2792.6512758867
scalar RSUExampleScenario.node[10].veinsmobility 	totalCO2Emission 	757.06816275567
scalar RSUExampleScenario.node[11].appl 	meanClusterNodes 	4.5
scalar RSUExampleScenario.node[11].appl 	meanClusterHeadUtility 	8.4211039723043
scalar RSUExampleScenario.node[11].appl 	NumberofCH 	0.10810810810811
scalar RSUExampleScenario.node[11].appl 	NumberofON 	0.40540540540541
scalar RSUExampleScenario.node[11].appl 	NumberofFN 	0.48648648648649
scalar RSUExampleScenario.node[11].veinsmobility 	startTime 	26.6
scalar RSUExampleScenario.node[11].veinsmobility 	totalTime 	423.4
scalar RSUExampleScenario.node[11].veinsmobility 	stopTime 	450
scalar RSUExampleScenario.node[11].veinsmobility 	minSpeed 	0
scalar RSUExampleScenario.node[11].veinsmobility 	maxSpeed 	13.999946900634
scalar RSUExampleScenario.node[11].veinsmobility 	totalDistance 	2752.0342915815
scalar RSUExampleScenario.node[11].veinsmobility 	totalCO2Emission 	756.69454518799
scalar RSUExampleScenario.node[12].appl 	meanClusterNodes 	6.25
scalar RSUExampleScenario.node[12].appl 	meanClusterHeadUtility 	7.9191773990236
scalar RSUExampleScenario.node[12].appl 	NumberofCH 	0.10810810810811
scalar RSUExampleScenario.node[12].appl 	NumberofON 	0.32432432432432
scalar RSUExampleScenario.node[12].appl 	NumberofFN 	0.56756756756757
scalar RSUExampleScenario.node[12].veinsmobility 	startTime 	29
scalar RSUExampleScenario.node[12].veinsmobility 	totalTime 	421
scalar RSUExampleScenario.node[12].veinsmobility 	stopTime 	450
scalar RSUExampleScenario.node[12].veinsmobility 	minSpeed 	0
scalar RSUExampleScenario.node[12].veinsmobility 	maxSpeed 	13.999982946261
scalar RSUExampleScenario.node[12].veinsmobility 	totalDistance 	2720.9421666061
scalar RSUExampleScenario.node[12].veinsmobility 	totalCO2Emission 	746.0425401084
scalar RSUExampleScenario.node[13].appl 	meanClusterNodes 	4.5
scalar RSUExampleScenario.node[13].appl 	meanClusterHeadUtility 	17.277067293076
scalar RSUExampleScenario.node[13].appl 	NumberofCH 	0.054054054054054
scalar RSUExampleScenario.node[13].appl 	NumberofON 	0.72972972972973
scalar RSUExampleScenario.node[13].appl 	NumberofFN 	0.21621621621622
scalar RSUExampleScenario.node[13].veinsmobility 	startTime 	31.4
scalar RSUExampleScenario.node[13].veinsmobility 	totalTime 	418.6
scalar RSUExampleScenario.node[13].veinsmobility 	stopTime 	450
scalar RSUExampleScenario.node[13].veinsmobility 	minSpeed 	0
scalar RSUExampleScenario.node[13].veinsmobility 	maxSpeed 	13.999924976868
scalar RSUExampleScenario.node[13].veinsmobility 	totalDistance 	2679.7587053642
scalar RSUExampleScenario.node[13].veinsmobility 	totalCO2Emission 	738.16413558475
scalar RSUExampleScenario.node[14].appl 	meanClusterNodes 	11
scalar RSUExampleScenario.node[14].appl 	meanClusterHeadUtility 	17.310237594442
scalar RSUExampleScenario.node[14].appl 	NumberofCH 	0.054054054054054
scalar RSUExampleScenario.node[14].appl 	NumberofON 	0.32432432432432
scalar RSUExampleScenario.node[14].appl 	NumberofFN 	0.62162162162162
scalar RSUExampleScenario.node[14].veinsmobility 	startTime 	33.8
scalar RSUExampleScenario.node[14].veinsmobility 	totalTime 	416.2
scalar RSUExampleScenario.node[14].veinsmobility 	stopTime 	450
scalar RSUExampleScenario.node[14].veinsmobility 	minSpeed 	0
scalar RSUExampleScenario.node[14].veinsmobility 	maxSpeed 	13.999920015037
scalar RSUExampleScenario.node[14].veinsmobility 	totalDistance 	2652.3064936549
scalar RSUExampleScenario.node[14].veinsmobility 	totalCO2Emission 	734.89294549897
scalar RSUExampleScenario.node[15].appl 	meanClusterNodes 	4.75
scalar RSUExampleScenario.node[15].appl 	meanClusterHeadUtility 	8.9034889458636
scalar RSUExampleScenario.node[15].appl 	NumberofCH 	0.10810810810811
scalar RSUExampleScenario.node[15].appl 	NumberofON 	0.51351351351351
scalar RSUExampleScenario.node[15].appl 	NumberofFN 	0.37837837837838
scalar RSUExampleScenario.node[15].veinsmobility 	startTime 	36.2
scalar RSUExampleScenario.node[15].veinsmobility 	totalTime 	413.8
scalar RSUExampleScenario.node[15].veinsmobility 	stopTime 	450
scalar RSUExampleScenario.node[15].veinsmobility 	minSpeed 	0
scalar RSUExampleScenario.node[15].veinsmobility 	maxSpeed 	13.999817525859
scalar RSUExampleScenario.node[15].veinsmobility 	totalDistance 	2612.843444343
scalar RSUExampleScenario.node[15].veinsmobility 	totalCO2Emission 	728.14151881171
scalar RSUExampleScenario.node[16].appl 	meanClusterNodes 	0
scalar RSUExampleScenario.node[16].appl 	meanClusterHeadUtility 	0
scalar RSUExampleScenario.node[16].appl 	NumberofCH 	0
scalar RSUExampleScenario.node[16].appl 	NumberofON 	0.62162162162162
scalar RSUExampleScenario.node[16].appl 	NumberofFN 	0.37837837837838
scalar RSUExampleScenario.node[16].veinsmobility 	startTime 	38.6
scalar RSUExampleScenario.node[16].veinsmobility 	totalTime 	411.4
scalar RSUExampleScenario.node[16].veinsmobility 	stopTime 	450
scalar RSUExampleScenario.node[16].veinsmobility 	minSpeed 	0
scalar RSUExampleScenario.node[16].veinsmobility 	maxSpeed 	13.999913808103
scalar RSUExampleScenario.node[16].veinsmobility 	totalDistance 	2582.9791987222
scalar RSUExampleScenario.node[16].veinsmobility 	totalCO2Emission 	723.29329726931
scalar RSUExampleScenario.node[17].appl 	meanClusterNodes 	0
scalar RSUExampleScenario.node[17].appl 	meanClusterHeadUtility 	0
scalar RSUExampleScenario.node[17].appl 	NumberofCH 	0
scalar RSUExampleScenario.node[17].appl 	NumberofON 	0.51351351351351
scalar RSUExampleScenario.node[17].appl 	NumberofFN 	0.48648648648649
scalar RSUExampleScenario.node[17].veinsmobility 	startTime 	41
scalar RSUExampleScenario.node[17].veinsmobility 	totalTime 	409
scalar RSUExampleScenario.node[17].veinsmobility 	stopTime 	450
scalar RSUExampleScenario.node[17].veinsmobility 	minSpeed 	0
scalar RSUExampleScenario.node[17].veinsmobility 	maxSpeed 	13.999826150902
scalar RSUExampleScenario.node[17].veinsmobility 	totalDistance 	2539.3475403516
scalar RSUExampleScenario.node[17].veinsmobility 	totalCO2Emission 	715.507782524
scalar RSUExampleScenario.node[18].appl 	meanClusterNodes 	3
scalar RSUExampleScenario.node[18].appl 	meanClusterHeadUtility 	7.7499142994056
scalar RSUExampleScenario.node[18].appl 	NumberofCH 	0.10810810810811
scalar RSUExampleScenario.node[18].appl 	NumberofON 	0.37837837837838
scalar RSUExampleScenario.node[18].appl 	NumberofFN 	0.51351351351351
scalar RSUExampleScenario.node[18].veinsmobility 	startTime 	43.4
scalar RSUExampleScenario.node[18].veinsmobility 	totalTime 	406.6
scalar RSUExampleScenario.node[18].veinsmobility 	stopTime 	450
scalar RSUExampleScenario.node[18].veinsmobility 	minSpeed 	0
scalar RSUExampleScenario.node[18].veinsmobility 	maxSpeed 	13.999947308798
scalar RSUExampleScenario.node[18].veinsmobility 	totalDistance 	2508.887662467
scalar RSUExampleScenario.node[18].veinsmobility 	totalCO2Emission 	712.32085498188
scalar RSUExampleScenario.node[19].appl 	meanClusterNodes 	4.75
scalar RSUExampleScenario.node[19].appl 	meanClusterHeadUtility 	8.7736435632644
scalar RSUExampleScenario.node[19].appl 	NumberofCH 	0.10810810810811
scalar RSUExampleScenario.node[19].appl 	NumberofON 	0.35135135135135
scalar RSUExampleScenario.node[19].appl 	NumberofFN 	0.54054054054054
scalar RSUExampleScenario.node[19].veinsmobility 	startTime 	45.8
scalar RSUExampleScenario.node[19].veinsmobility 	totalTime 	404.2
scalar RSUExampleScenario.node[19].veinsmobility 	stopTime 	450
scalar RSUExampleScenario.node[19].veinsmobility 	minSpeed 	0
scalar RSUExampleScenario.node[19].veinsmobility 	maxSpeed 	13.999848407586
scalar RSUExampleScenario.node[19].veinsmobility 	totalDistance 	2469.7334863913
scalar RSUExampleScenario.node[19].veinsmobility 	totalCO2Emission 	704.7860066297
scalar RSUExampleScenario.node[2].appl 	meanClusterNodes 	5.25
scalar RSUExampleScenario.node[2].appl 	meanClusterHeadUtility 	9.1736117132262
scalar RSUExampleScenario.node[2].appl 	NumberofCH 	0.10810810810811
scalar RSUExampleScenario.node[2].appl 	NumberofON 	0.27027027027027
scalar RSUExampleScenario.node[2].appl 	NumberofFN 	0.62162162162162
scalar RSUExampleScenario.node[2].veinsmobility 	startTime 	4.9
scalar RSUExampleScenario.node[2].veinsmobility 	totalTime 	445.1
scalar RSUExampleScenario.node[2].veinsmobility 	stopTime 	450
scalar RSUExampleScenario.node[2].veinsmobility 	minSpeed 	0
scalar RSUExampleScenario.node[2].veinsmobility 	maxSpeed 	13.999852803496
scalar RSUExampleScenario.node[2].veinsmobility 	totalDistance 	3038.3066399752
scalar RSUExampleScenario.node[2].veinsmobility 	totalCO2Emission 	821.87069610915
scalar RSUExampleScenario.node[20].appl 	meanClusterNodes 	1
scalar RSUExampleScenario.node[20].appl 	meanClusterHeadUtility 	33.343662968111
scalar RSUExampleScenario.node[20].appl 	NumberofCH 	0.027027027027027
scalar RSUExampleScenario.node[20].appl 	NumberofON 	0.72972972972973
scalar RSUExampleScenario.node[20].appl 	NumberofFN 	0.24324324324324
scalar RSUExampleScenario.node[20].veinsmobility 	startTime 	48.3
scalar RSUExampleScenario.node[20].veinsmobility 	totalTime 	401.7
scalar RSUExampleScenario.node[20].veinsmobility 	stopTime 	450
scalar RSUExampleScenario.node[20].veinsmobility 	minSpeed 	0
scalar RSUExampleScenario.node[20].veinsmobility 	maxSpeed 	13.999847208369
scalar RSUExampleScenario.node[20].veinsmobility 	totalDistance 	2441.5367619404
scalar RSUExampleScenario.node[20].veinsmobility 	totalCO2Emission 	700.10131453704
scalar RSUExampleScenario.node[21].appl 	meanClusterNodes 	7.75
scalar RSUExampleScenario.node[21].appl 	meanClusterHeadUtility 	9.2561892275934
scalar RSUExampleScenario.node[21].appl 	NumberofCH 	0.10810810810811
scalar RSUExampleScenario.node[21].appl 	NumberofON 	0.35135135135135
scalar RSUExampleScenario.node[21].appl 	NumberofFN 	0.54054054054054
scalar RSUExampleScenario.node[21].veinsmobility 	startTime 	50.7
scalar RSUExampleScenario.node[21].veinsmobility 	totalTime 	399.3
scalar RSUExampleScenario.node[21].veinsmobility 	stopTime 	450
scalar RSUExampleScenario.node[21].veinsmobility 	minSpeed 	0
scalar RSUExampleScenario.node[21].veinsmobility 	maxSpeed 	13.999941622685
scalar RSUExampleScenario.node[21].veinsmobility 	totalDistance 	2404.3272050461
scalar RSUExampleScenario.node[21].veinsmobility 	totalCO2Emission 	696.56741458508
scalar RSUExampleScenario.node[22].appl 	meanClusterNodes 	7
scalar RSUExampleScenario.node[22].appl 	meanClusterHeadUtility 	8.6416286723664
scalar RSUExampleScenario.node[22].appl 	NumberofCH 	0.10810810810811
scalar RSUExampleScenario.node[22].appl 	NumberofON 	0.54054054054054
scalar RSUExampleScenario.node[22].appl 	NumberofFN 	0.35135135135135
scalar RSUExampleScenario.node[22].veinsmobility 	startTime 	53.1
scalar RSUExampleScenario.node[22].veinsmobility 	totalTime 	396.9
scalar RSUExampleScenario.node[22].veinsmobility 	stopTime 	450
scalar RSUExampleScenario.node[22].veinsmobility 	minSpeed 	0
scalar RSUExampleScenario.node[22].veinsmobility 	maxSpeed 	13.999979357054
scalar RSUExampleScenario.node[22].veinsmobility 	totalDistance 	2374.9589403986
scalar RSUExampleScenario.node[22].veinsmobility 	totalCO2Emission 	685.51740969446
scalar RSUExampleScenario.node[23].appl 	meanClusterNodes 	6.5
scalar RSUExampleScenario.node[23].appl 	meanClusterHeadUtility 	17.787386976501
scalar RSUExampleScenario.node[23].appl 	NumberofCH 	0.054054054054054
scalar RSUExampleScenario.node[23].appl 	NumberofON 	0.62162162162162
scalar RSUExampleScenario.node[23].appl 	NumberofFN 	0.32432432432432
scalar RSUExampleScenario.node[23].veinsmobility 	startTime 	55.5
scalar RSUExampleScenario.node[23].veinsmobility 	totalTime 	394.5
scalar RSUExampleScenario.node[23].veinsmobility 	stopTime 	450
scalar RSUExampleScenario.node[23].veinsmobility 	minSpeed 	0
scalar RSUExampleScenario.node[23].veinsmobility 	maxSpeed 	13.999945835685
scalar RSUExampleScenario.node[23].veinsmobility 	totalDistance 	2335.1676887557
scalar RSUExampleScenario.node[23].veinsmobility 	totalCO2Emission 	682.11371656469
scalar RSUExampleScenario.node[24].appl 	meanClusterNodes 	2.5
scalar RSUExampleScenario.node[24].appl 	meanClusterHeadUtility 	18.086358271551
scalar RSUExampleScenario.node[24].appl 	NumberofCH 	0.054054054054054
scalar RSUExampleScenario.node[24].appl 	NumberofON 	0.62162162162162
scalar RSUExampleScenario.node[24].appl 	NumberofFN 	0.32432432432432
scalar RSUExampleScenario.node[24].veinsmobility 	startTime 	57.9
scalar RSUExampleScenario.node[24].veinsmobility 	totalTime 	392.1
scalar RSUExampleScenario.node[24].veinsmobility 	stopTime 	450
scalar RSUExampleScenario.node[24].veinsmobility 	minSpeed 	0
scalar RSUExampleScenario.node[24].veinsmobility 	maxSpeed 	13.999979057915
scalar RSUExampleScenario.node[24].veinsmobility 	totalDistance 	2307.1080583722
scalar RSUExampleScenario.node[24].veinsmobility 	totalCO2Emission 	677.74733673831
scalar RSUExampleScenario.node[25].appl 	meanClusterNodes 	1.75
scalar RSUExampleScenario.node[25].appl 	meanClusterHeadUtility 	8.6995636695442
scalar RSUExampleScenario.node[25].appl 	NumberofCH 	0.10810810810811
scalar RSUExampleScenario.node[25].appl 	NumberofON 	0.35135135135135
scalar RSUExampleScenario.node[25].appl 	NumberofFN 	0.54054054054054
scalar RSUExampleScenario.node[25].veinsmobility 	startTime 	60.3
scalar RSUExampleScenario.node[25].veinsmobility 	totalTime 	389.7
scalar RSUExampleScenario.node[25].veinsmobility 	stopTime 	450
scalar RSUExampleScenario.node[25].veinsmobility 	minSpeed 	0
scalar RSUExampleScenario.node[25].veinsmobility 	maxSpeed 	13.99907132278
scalar RSUExampleScenario.node[25].veinsmobility 	totalDistance 	2267.1526717986
scalar RSUExampleScenario.node[25].veinsmobility 	totalCO2Emission 	671.13696243158
scalar RSUExampleScenario.node[26].appl 	meanClusterNodes 	10.5
scalar RSUExampleScenario.node[26].appl 	meanClusterHeadUtility 	16.717153173229
scalar RSUExampleScenario.node[26].appl 	NumberofCH 	0.054054054054054
scalar RSUExampleScenario.node[26].appl 	NumberofON 	0.45945945945946
scalar RSUExampleScenario.node[26].appl 	NumberofFN 	0.48648648648649
scalar RSUExampleScenario.node[26].veinsmobility 	startTime 	62.7
scalar RSUExampleScenario.node[26].veinsmobility 	totalTime 	387.3
scalar RSUExampleScenario.node[26].veinsmobility 	stopTime 	450
scalar RSUExampleScenario.node[26].veinsmobility 	minSpeed 	0
scalar RSUExampleScenario.node[26].veinsmobility 	maxSpeed 	13.999969194336
scalar RSUExampleScenario.node[26].veinsmobility 	totalDistance 	2237.7784246958
scalar RSUExampleScenario.node[26].veinsmobility 	totalCO2Emission 	668.47104074515
scalar RSUExampleScenario.node[27].appl 	meanClusterNodes 	6.25
scalar RSUExampleScenario.node[27].appl 	meanClusterHeadUtility 	8.4713495417613
scalar RSUExampleScenario.node[27].appl 	NumberofCH 	0.10810810810811
scalar RSUExampleScenario.node[27].appl 	NumberofON 	0.54054054054054
scalar RSUExampleScenario.node[27].appl 	NumberofFN 	0.35135135135135
scalar RSUExampleScenario.node[27].veinsmobility 	startTime 	65.1
scalar RSUExampleScenario.node[27].veinsmobility 	totalTime 	384.9
scalar RSUExampleScenario.node[27].veinsmobility 	stopTime 	450
scalar RSUExampleScenario.node[27].veinsmobility 	minSpeed 	0
scalar RSUExampleScenario.node[27].veinsmobility 	maxSpeed 	13.999983536275
scalar RSUExampleScenario.node[27].veinsmobility 	totalDistance 	2200.9274500083
scalar RSUExampleScenario.node[27].veinsmobility 	totalCO2Emission 	660.96420572612
scalar RSUExampleScenario.node[28].appl 	meanClusterNodes 	7.5
scalar RSUExampleScenario.node[28].appl 	meanClusterHeadUtility 	16.481072182737
scalar RSUExampleScenario.node[28].appl 	NumberofCH 	0.054054054054054
scalar RSUExampleScenario.node[28].appl 	NumberofON 	0.59459459459459
scalar RSUExampleScenario.node[28].appl 	NumberofFN 	0.35135135135135
scalar RSUExampleScenario.node[28].veinsmobility 	startTime 	67.5
scalar RSUExampleScenario.node[28].veinsmobility 	totalTime 	382.5
scalar RSUExampleScenario.node[28].veinsmobility 	stopTime 	450
scalar RSUExampleScenario.node[28].veinsmobility 	minSpeed 	0
scalar RSUExampleScenario.node[28].veinsmobility 	maxSpeed 	13.999830061465
scalar RSUExampleScenario.node[28].veinsmobility 	totalDistance 	2168.8219004702
scalar RSUExampleScenario.node[28].veinsmobility 	totalCO2Emission 	659.05043589532
scalar RSUExampleScenario.node[29].appl 	meanClusterNodes 	8.5
scalar RSUExampleScenario.node[29].appl 	meanClusterHeadUtility 	16.416042878457
scalar RSUExampleScenario.node[29].appl 	NumberofCH 	0.054054054054054
scalar RSUExampleScenario.node[29].appl 	NumberofON 	0.40540540540541
scalar RSUExampleScenario.node[29].appl 	NumberofFN 	0.54054054054054
scalar RSUExampleScenario.node[29].veinsmobility 	startTime 	69.9
scalar RSUExampleScenario.node[29].veinsmobility 	totalTime 	380.1
scalar RSUExampleScenario.node[29].veinsmobility 	stopTime 	450
scalar RSUExampleScenario.node[29].veinsmobility 	minSpeed 	0
scalar RSUExampleScenario.node[29].veinsmobility 	maxSpeed 	13.999684453576
scalar RSUExampleScenario.node[29].veinsmobility 	totalDistance 	2132.9929343003
scalar RSUExampleScenario.node[29].veinsmobility 	totalCO2Emission 	646.96139486245
scalar RSUExampleScenario.node[3].appl 	meanClusterNodes 	6.5
scalar RSUExampleScenario.node[3].appl 	meanClusterHeadUtility 	8.7606516350722
scalar RSUExampleScenario.node[3].appl 	NumberofCH 	0.10810810810811
scalar RSUExampleScenario.node[3].appl 	NumberofON 	0.45945945945946
scalar RSUExampleScenario.node[3].appl 	NumberofFN 	0.43243243243243
scalar RSUExampleScenario.node[3].veinsmobility 	startTime 	7.3
scalar RSUExampleScenario.node[3].veinsmobility 	totalTime 	442.7
scalar RSUExampleScenario.node[3].veinsmobility 	stopTime 	450
scalar RSUExampleScenario.node[3].veinsmobility 	minSpeed 	0
scalar RSUExampleScenario.node[3].veinsmobility 	maxSpeed 	13.999998665212
scalar RSUExampleScenario.node[3].veinsmobility 	totalDistance 	2991.883776689
scalar RSUExampleScenario.node[3].veinsmobility 	totalCO2Emission 	812.15359048853
scalar RSUExampleScenario.node[30].appl 	meanClusterNodes 	2
scalar RSUExampleScenario.node[30].appl 	meanClusterHeadUtility 	15.38701889893
scalar RSUExampleScenario.node[30].appl 	NumberofCH 	0.054054054054054
scalar RSUExampleScenario.node[30].appl 	NumberofON 	0.72972972972973
scalar RSUExampleScenario.node[30].appl 	NumberofFN 	0.21621621621622
scalar RSUExampleScenario.node[30].veinsmobility 	startTime 	72.4
scalar RSUExampleScenario.node[30].veinsmobility 	totalTime 	377.6
scalar RSUExampleScenario.node[30].veinsmobility 	stopTime 	450
scalar RSUExampleScenario.node[30].veinsmobility 	minSpeed 	0
scalar RSUExampleScenario.node[30].veinsmobility 	maxSpeed 	13.999986596792
scalar RSUExampleScenario.node[30].veinsmobility 	totalDistance 	2102.4599635044
scalar RSUExampleScenario.node[30].veinsmobility 	totalCO2Emission 	642.29574050015
scalar RSUExampleScenario.node[31].appl 	meanClusterNodes 	4
scalar RSUExampleScenario.node[31].appl 	meanClusterHeadUtility 	16.613608893461
scalar RSUExampleScenario.node[31].appl 	NumberofCH 	0.054054054054054
scalar RSUExampleScenario.node[31].appl 	NumberofON 	0.54054054054054
scalar RSUExampleScenario.node[31].appl 	NumberofFN 	0.40540540540541
scalar RSUExampleScenario.node[31].veinsmobility 	startTime 	74.8
scalar RSUExampleScenario.node[31].veinsmobility 	totalTime 	375.2
scalar RSUExampleScenario.node[31].veinsmobility 	stopTime 	450
scalar RSUExampleScenario.node[31].veinsmobility 	minSpeed 	0
scalar RSUExampleScenario.node[31].veinsmobility 	maxSpeed 	13.999500414398
scalar RSUExampleScenario.node[31].veinsmobility 	totalDistance 	2066.1070102066
scalar RSUExampleScenario.node[31].veinsmobility 	totalCO2Emission 	638.24173468765
scalar RSUExampleScenario.node[32].appl 	meanClusterNodes 	2
scalar RSUExampleScenario.node[32].appl 	meanClusterHeadUtility 	16.481202470196
scalar RSUExampleScenario.node[32].appl 	NumberofCH 	0.054054054054054
scalar RSUExampleScenario.node[32].appl 	NumberofON 	0.64864864864865
scalar RSUExampleScenario.node[32].appl 	NumberofFN 	0.2972972972973
scalar RSUExampleScenario.node[32].veinsmobility 	startTime 	77.2
scalar RSUExampleScenario.node[32].veinsmobility 	totalTime 	372.8
scalar RSUExampleScenario.node[32].veinsmobility 	stopTime 	450
scalar RSUExampleScenario.node[32].veinsmobility 	minSpeed 	0
scalar RSUExampleScenario.node[32].veinsmobility 	maxSpeed 	13.999942178284
scalar RSUExampleScenario.node[32].veinsmobility 	totalDistance 	2032.6648878809
scalar RSUExampleScenario.node[32].veinsmobility 	totalCO2Emission 	631.0332409865
scalar RSUExampleScenario.node[33].appl 	meanClusterNodes 	4
scalar RSUExampleScenario.node[33].appl 	meanClusterHeadUtility 	8.5257084058705
scalar RSUExampleScenario.node[33].appl 	NumberofCH 	0.10810810810811
scalar RSUExampleScenario.node[33].appl 	NumberofON 	0.59459459459459
scalar RSUExampleScenario.node[33].appl 	NumberofFN 	0.2972972972973
scalar RSUExampleScenario.node[33].veinsmobility 	startTime 	79.6
scalar RSUExampleScenario.node[33].veinsmobility 	totalTime 	370.4
scalar RSUExampleScenario.node[33].veinsmobility 	stopTime 	450
scalar RSUExampleScenario.node[33].veinsmobility 	minSpeed 	0
scalar RSUExampleScenario.node[33].veinsmobility 	maxSpeed 	13.999698672022
scalar RSUExampleScenario.node[33].veinsmobility 	totalDistance 	1996.5556559993
scalar RSUExampleScenario.node[33].veinsmobility 	totalCO2Emission 	628.9045074627
scalar RSUExampleScenario.node[34].appl 	meanClusterNodes 	6
scalar RSUExampleScenario.node[34].appl 	meanClusterHeadUtility 	8.368865811864
scalar RSUExampleScenario.node[34].appl 	NumberofCH 	0.10810810810811
scalar RSUExampleScenario.node[34].appl 	NumberofON 	0.62162162162162
scalar RSUExampleScenario.node[34].appl 	NumberofFN 	0.27027027027027
scalar RSUExampleScenario.node[34].veinsmobility 	startTime 	82
scalar RSUExampleScenario.node[34].veinsmobility 	totalTime 	368
scalar RSUExampleScenario.node[34].veinsmobility 	stopTime 	450
scalar RSUExampleScenario.node[34].veinsmobility 	minSpeed 	0
scalar RSUExampleScenario.node[34].veinsmobility 	maxSpeed 	13.999854960574
scalar RSUExampleScenario.node[34].veinsmobility 	totalDistance 	1964.7837986387
scalar RSUExampleScenario.node[34].veinsmobility 	totalCO2Emission 	621.39680822547
scalar RSUExampleScenario.node[35].appl 	meanClusterNodes 	7
scalar RSUExampleScenario.node[35].appl 	meanClusterHeadUtility 	17.819170321264
scalar RSUExampleScenario.node[35].appl 	NumberofCH 	0.054054054054054
scalar RSUExampleScenario.node[35].appl 	NumberofON 	0.45945945945946
scalar RSUExampleScenario.node[35].appl 	NumberofFN 	0.48648648648649
scalar RSUExampleScenario.node[35].veinsmobility 	startTime 	84.4
scalar RSUExampleScenario.node[35].veinsmobility 	totalTime 	365.6
scalar RSUExampleScenario.node[35].veinsmobility 	stopTime 	450
scalar RSUExampleScenario.node[35].veinsmobility 	minSpeed 	0
scalar RSUExampleScenario.node[35].veinsmobility 	maxSpeed 	13.99956066061
scalar RSUExampleScenario.node[35].veinsmobility 	totalDistance 	1931.9432374531
scalar RSUExampleScenario.node[35].veinsmobility 	totalCO2Emission 	615.23635676703
scalar RSUExampleScenario.node[36].appl 	meanClusterNodes 	6
scalar RSUExampleScenario.node[36].appl 	meanClusterHeadUtility 	9.3953602635221
scalar RSUExampleScenario.node[36].appl 	NumberofCH 	0.10810810810811
scalar RSUExampleScenario.node[36].appl 	NumberofON 	0.2972972972973
scalar RSUExampleScenario.node[36].appl 	NumberofFN 	0.59459459459459
scalar RSUExampleScenario.node[36].veinsmobility 	startTime 	86.8
scalar RSUExampleScenario.node[36].veinsmobility 	totalTime 	363.2
scalar RSUExampleScenario.node[36].veinsmobility 	stopTime 	450
scalar RSUExampleScenario.node[36].veinsmobility 	minSpeed 	0
scalar RSUExampleScenario.node[36].veinsmobility 	maxSpeed 	13.999980547735
scalar RSUExampleScenario.node[36].veinsmobility 	totalDistance 	1897.0041221531
scalar RSUExampleScenario.node[36].veinsmobility 	totalCO2Emission 	610.1012100368
scalar RSUExampleScenario.node[37].appl 	meanClusterNodes 	2
scalar RSUExampleScenario.node[37].appl 	meanClusterHeadUtility 	15.894604762516
scalar RSUExampleScenario.node[37].appl 	NumberofCH 	0.054054054054054
scalar RSUExampleScenario.node[37].appl 	NumberofON 	0.51351351351351
scalar RSUExampleScenario.node[37].appl 	NumberofFN 	0.43243243243243
scalar RSUExampleScenario.node[37].veinsmobility 	startTime 	89.2
scalar RSUExampleScenario.node[37].veinsmobility 	totalTime 	360.8
scalar RSUExampleScenario.node[37].veinsmobility 	stopTime 	450
scalar RSUExampleScenario.node[37].veinsmobility 	minSpeed 	0
scalar RSUExampleScenario.node[37].veinsmobility 	maxSpeed 	13.999809287731
scalar RSUExampleScenario.node[37].veinsmobility 	totalDistance 	1864.5225507649
scalar RSUExampleScenario.node[37].veinsmobility 	totalCO2Emission 	603.1509008821
scalar RSUExampleScenario.node[38].appl 	meanClusterNodes 	8
scalar RSUExampleScenario.node[38].appl 	meanClusterHeadUtility 	15.892822192689
scalar RSUExampleScenario.node[38].appl 	NumberofCH 	0.054054054054054
scalar RSUExampleScenario.node[38].appl 	NumberofON 	0.37837837837838
scalar RSUExampleScenario.node[38].appl 	NumberofFN 	0.56756756756757
scalar RSUExampleScenario.node[38].veinsmobility 	startTime 	91.6
scalar RSUExampleScenario.node[38].veinsmobility 	totalTime 	358.4
scalar RSUExampleScenario.node[38].veinsmobility 	stopTime 	450
scalar RSUExampleScenario.node[38].veinsmobility 	minSpeed 	0
scalar RSUExampleScenario.node[38].veinsmobility 	maxSpeed 	13.999743202098
scalar RSUExampleScenario.node[38].veinsmobility 	totalDistance 	1830.5343601276
scalar RSUExampleScenario.node[38].veinsmobility 	totalCO2Emission 	601.37119338128
scalar RSUExampleScenario.node[39].appl 	meanClusterNodes 	5.5
scalar RSUExampleScenario.node[39].appl 	meanClusterHeadUtility 	16.959735337833
scalar RSUExampleScenario.node[39].appl 	NumberofCH 	0.054054054054054
scalar RSUExampleScenario.node[39].appl 	NumberofON 	0.64864864864865
scalar RSUExampleScenario.node[39].appl 	NumberofFN 	0.2972972972973
scalar RSUExampleScenario.node[39].veinsmobility 	startTime 	94
scalar RSUExampleScenario.node[39].veinsmobility 	totalTime 	356
scalar RSUExampleScenario.node[39].veinsmobility 	stopTime 	450
scalar RSUExampleScenario.node[39].veinsmobility 	minSpeed 	0
scalar RSUExampleScenario.node[39].veinsmobility 	maxSpeed 	13.999754518601
scalar RSUExampleScenario.node[39].veinsmobility 	totalDistance 	1796.2166258256
scalar RSUExampleScenario.node[39].veinsmobility 	totalCO2Emission 	592.20551074317
scalar RSUExampleScenario.node[4].appl 	meanClusterNodes 	2.5
scalar RSUExampleScenario.node[4].appl 	meanClusterHeadUtility 	18.179617569734
scalar RSUExampleScenario.node[4].appl 	NumberofCH 	0.054054054054054
scalar RSUExampleScenario.node[4].appl 	NumberofON 	0.72972972972973
scalar RSUExampleScenario.node[4].appl 	NumberofFN 	0.21621621621622
scalar RSUExampleScenario.node[4].veinsmobility 	startTime 	9.7
scalar RSUExampleScenario.node[4].veinsmobility 	totalTime 	440.3
scalar RSUExampleScenario.node[4].veinsmobility 	stopTime 	450
scalar RSUExampleScenario.node[4].veinsmobility 	minSpeed 	0
scalar RSUExampleScenario.node[4].veinsmobility 	maxSpeed 	13.999714544765
scalar RSUExampleScenario.node[4].veinsmobility 	totalDistance 	2951.3861079663
scalar RSUExampleScenario.node[4].veinsmobility 	totalCO2Emission 	792.81978340218
scalar RSUExampleScenario.node[40].appl 	meanClusterNodes 	6
scalar RSUExampleScenario.node[40].appl 	meanClusterHeadUtility 	11.332330066526
scalar RSUExampleScenario.node[40].appl 	NumberofCH 	0.081081081081081
scalar RSUExampleScenario.node[40].appl 	NumberofON 	0.67567567567568
scalar RSUExampleScenario.node[40].appl 	NumberofFN 	0.24324324324324
scalar RSUExampleScenario.node[40].veinsmobility 	startTime 	96.5
scalar RSUExampleScenario.node[40].veinsmobility 	totalTime 	353.5
scalar RSUExampleScenario.node[40].veinsmobility 	stopTime 	450
scalar RSUExampleScenario.node[40].veinsmobility 	minSpeed 	0
scalar RSUExampleScenario.node[40].veinsmobility 	maxSpeed 	13.999920720765
scalar RSUExampleScenario.node[40].veinsmobility 	totalDistance 	1764.2515315685
scalar RSUExampleScenario.node[40].veinsmobility 	totalCO2Emission 	589.95366602329
scalar RSUExampleScenario.node[41].appl 	meanClusterNodes 	8
scalar RSUExampleScenario.node[41].appl 	meanClusterHeadUtility 	17.678328099492
scalar RSUExampleScenario.node[41].appl 	NumberofCH 	0.054054054054054
scalar RSUExampleScenario.node[41].appl 	NumberofON 	0.40540540540541
scalar RSUExampleScenario.node[41].appl 	NumberofFN 	0.54054054054054
scalar RSUExampleScenario.node[41].veinsmobility 	startTime 	98.9
scalar RSUExampleScenario.node[41].veinsmobility 	totalTime 	351.1
scalar RSUExampleScenario.node[41].veinsmobility 	stopTime 	450
scalar RSUExampleScenario.node[41].veinsmobility 	minSpeed 	0
scalar RSUExampleScenario.node[41].veinsmobility 	maxSpeed 	13.999778629411
scalar RSUExampleScenario.node[41].veinsmobility 	totalDistance 	1730.2889211836
scalar RSUExampleScenario.node[41].veinsmobility 	totalCO2Emission 	581.09667870869
scalar RSUExampleScenario.node[42].appl 	meanClusterNodes 	4
scalar RSUExampleScenario.node[42].appl 	meanClusterHeadUtility 	16.59397063453
scalar RSUExampleScenario.node[42].appl 	NumberofCH 	0.054054054054054
scalar RSUExampleScenario.node[42].appl 	NumberofON 	0.37837837837838
scalar RSUExampleScenario.node[42].appl 	NumberofFN 	0.56756756756757
scalar RSUExampleScenario.node[42].veinsmobility 	startTime 	101.3
scalar RSUExampleScenario.node[42].veinsmobility 	totalTime 	348.7
scalar RSUExampleScenario.node[42].veinsmobility 	stopTime 	450
scalar RSUExampleScenario.node[42].veinsmobility 	minSpeed 	0
scalar RSUExampleScenario.node[42].veinsmobility 	maxSpeed 	13.99976504181
scalar RSUExampleScenario.node[42].veinsmobility 	totalDistance 	1697.3029298064
scalar RSUExampleScenario.node[42].veinsmobility 	totalCO2Emission 	575.38263742273
scalar RSUExampleScenario.node[43].appl 	meanClusterNodes 	8.5
scalar RSUExampleScenario.node[43].appl 	meanClusterHeadUtility 	16.791871561929
scalar RSUExampleScenario.node[43].appl 	NumberofCH 	0.054054054054054
scalar RSUExampleScenario.node[43].appl 	NumberofON 	0.62162162162162
scalar RSUExampleScenario.node[43].appl 	NumberofFN 	0.32432432432432
scalar RSUExampleScenario.node[43].veinsmobility 	startTime 	103.7
scalar RSUExampleScenario.node[43].veinsmobility 	totalTime 	346.3
scalar RSUExampleScenario.node[43].veinsmobility 	stopTime 	450
scalar RSUExampleScenario.node[43].veinsmobility 	minSpeed 	0
scalar RSUExampleScenario.node[43].veinsmobility 	maxSpeed 	13.999937433323
scalar RSUExampleScenario.node[43].veinsmobility 	totalDistance 	1664.0813159925
scalar RSUExampleScenario.node[43].veinsmobility 	totalCO2Emission 	569.01205579391
scalar RSUExampleScenario.node[44].appl 	meanClusterNodes 	3.25
scalar RSUExampleScenario.node[44].appl 	meanClusterHeadUtility 	8.5346692335194
scalar RSUExampleScenario.node[44].appl 	NumberofCH 	0.10810810810811
scalar RSUExampleScenario.node[44].appl 	NumberofON 	0.67567567567568
scalar RSUExampleScenario.node[44].appl 	NumberofFN 	0.21621621621622
scalar RSUExampleScenario.node[44].veinsmobility 	startTime 	106.1
scalar RSUExampleScenario.node[44].veinsmobility 	totalTime 	343.9
scalar RSUExampleScenario.node[44].veinsmobility 	stopTime 	450
scalar RSUExampleScenario.node[44].veinsmobility 	minSpeed 	0
scalar RSUExampleScenario.node[44].veinsmobility 	maxSpeed 	13.999952367637
scalar RSUExampleScenario.node[44].veinsmobility 	totalDistance 	1629.9348725033
scalar RSUExampleScenario.node[44].veinsmobility 	totalCO2Emission 	567.54332268317
scalar RSUExampleScenario.node[45].appl 	meanClusterNodes 	7
scalar RSUExampleScenario.node[45].appl 	meanClusterHeadUtility 	17.765766694119
scalar RSUExampleScenario.node[45].appl 	NumberofCH 	0.054054054054054
scalar RSUExampleScenario.node[45].appl 	NumberofON 	0.40540540540541
scalar RSUExampleScenario.node[45].appl 	NumberofFN 	0.54054054054054
scalar RSUExampleScenario.node[45].veinsmobility 	startTime 	108.5
scalar RSUExampleScenario.node[45].veinsmobility 	totalTime 	341.5
scalar RSUExampleScenario.node[45].veinsmobility 	stopTime 	450
scalar RSUExampleScenario.node[45].veinsmobility 	minSpeed 	0
scalar RSUExampleScenario.node[45].veinsmobility 	maxSpeed 	13.999918872905
scalar RSUExampleScenario.node[45].veinsmobility 	totalDistance 	1596.8542406936
scalar RSUExampleScenario.node[45].veinsmobility 	totalCO2Emission 	560.14658501504
scalar RSUExampleScenario.node[46].appl 	meanClusterNodes 	2.5
scalar RSUExampleScenario.node[46].appl 	meanClusterHeadUtility 	19.236092051829
scalar RSUExampleScenario.node[46].appl 	NumberofCH 	0.054054054054054
scalar RSUExampleScenario.node[46].appl 	NumberofON 	0.72972972972973
scalar RSUExampleScenario.node[46].appl 	NumberofFN 	0.21621621621622
scalar RSUExampleScenario.node[46].veinsmobility 	startTime 	110.9
scalar RSUExampleScenario.node[46].veinsmobility 	totalTime 	339.1
scalar RSUExampleScenario.node[46].veinsmobility 	stopTime 	450
scalar RSUExampleScenario.node[46].veinsmobility 	minSpeed 	0
scalar RSUExampleScenario.node[46].veinsmobility 	maxSpeed 	13.999885384499
scalar RSUExampleScenario.node[46].veinsmobility 	totalDistance 	1563.4008665898
scalar RSUExampleScenario.node[46].veinsmobility 	totalCO2Emission 	553.66857785972
scalar RSUExampleScenario.node[47].appl 	meanClusterNodes 	4.5
scalar RSUExampleScenario.node[47].appl 	meanClusterHeadUtility 	18.284712653245
scalar RSUExampleScenario.node[47].appl 	NumberofCH 	0.054054054054054
scalar RSUExampleScenario.node[47].appl 	NumberofON 	0.51351351351351
scalar RSUExampleScenario.node[47].appl 	NumberofFN 	0.43243243243243
scalar RSUExampleScenario.node[47].veinsmobility 	startTime 	113.3
scalar RSUExampleScenario.node[47].veinsmobility 	totalTime 	336.7
scalar RSUExampleScenario.node[47].veinsmobility 	stopTime 	450
scalar RSUExampleScenario.node[47].veinsmobility 	minSpeed 	0
scalar RSUExampleScenario.node[47].veinsmobility 	maxSpeed 	13.999671247019
scalar RSUExampleScenario.node[47].veinsmobility 	totalDistance 	1527.4103482353
scalar RSUExampleScenario.node[47].veinsmobility 	totalCO2Emission 	549.60160614369
scalar RSUExampleScenario.node[48].appl 	meanClusterNodes 	8
scalar RSUExampleScenario.node[48].appl 	meanClusterHeadUtility 	17.504539107074
scalar RSUExampleScenario.node[48].appl 	NumberofCH 	0.054054054054054
scalar RSUExampleScenario.node[48].appl 	NumberofON 	0.48648648648649
scalar RSUExampleScenario.node[48].appl 	NumberofFN 	0.45945945945946
scalar RSUExampleScenario.node[48].veinsmobility 	startTime 	115.7
scalar RSUExampleScenario.node[48].veinsmobility 	totalTime 	334.3
scalar RSUExampleScenario.node[48].veinsmobility 	stopTime 	450
scalar RSUExampleScenario.node[48].veinsmobility 	minSpeed 	0
scalar RSUExampleScenario.node[48].veinsmobility 	maxSpeed 	13.999907247548
scalar RSUExampleScenario.node[48].veinsmobility 	totalDistance 	1495.0258876087
scalar RSUExampleScenario.node[48].veinsmobility 	totalCO2Emission 	543.55749872278
scalar RSUExampleScenario.node[49].appl 	meanClusterNodes 	4.25
scalar RSUExampleScenario.node[49].appl 	meanClusterHeadUtility 	9.2750545818145
scalar RSUExampleScenario.node[49].appl 	NumberofCH 	0.10810810810811
scalar RSUExampleScenario.node[49].appl 	NumberofON 	0.64864864864865
scalar RSUExampleScenario.node[49].appl 	NumberofFN 	0.24324324324324
scalar RSUExampleScenario.node[49].veinsmobility 	startTime 	118.1
scalar RSUExampleScenario.node[49].veinsmobility 	totalTime 	331.9
scalar RSUExampleScenario.node[49].veinsmobility 	stopTime 	450
scalar RSUExampleScenario.node[49].veinsmobility 	minSpeed 	0
scalar RSUExampleScenario.node[49].veinsmobility 	maxSpeed 	13.999235074297
scalar RSUExampleScenario.node[49].veinsmobility 	totalDistance 	1459.7131309475
scalar RSUExampleScenario.node[49].veinsmobility 	totalCO2Emission 	535.93294446637
scalar RSUExampleScenario.node[5].appl 	meanClusterNodes 	2.5
scalar RSUExampleScenario.node[5].appl 	meanClusterHeadUtility 	9.5288122421769
scalar RSUExampleScenario.node[5].appl 	NumberofCH 	0.10810810810811
scalar RSUExampleScenario.node[5].appl 	NumberofON 	0.43243243243243
scalar RSUExampleScenario.node[5].appl 	NumberofFN 	0.45945945945946
scalar RSUExampleScenario.node[5].veinsmobility 	startTime 	12.1
scalar RSUExampleScenario.node[5].veinsmobility 	totalTime 	437.9
scalar RSUExampleScenario.node[5].veinsmobility 	stopTime 	450
scalar RSUExampleScenario.node[5].veinsmobility 	minSpeed 	0
scalar RSUExampleScenario.node[5].veinsmobility 	maxSpeed 	13.999969948614
scalar RSUExampleScenario.node[5].veinsmobility 	totalDistance 	2913.9107941201
scalar RSUExampleScenario.node[5].veinsmobility 	totalCO2Emission 	779.25384724734
scalar RSUExampleScenario.node[50].appl 	meanClusterNodes 	0
scalar RSUExampleScenario.node[50].appl 	meanClusterHeadUtility 	0
scalar RSUExampleScenario.node[50].appl 	NumberofCH 	0
scalar RSUExampleScenario.node[50].appl 	NumberofON 	0.83783783783784
scalar RSUExampleScenario.node[50].appl 	NumberofFN 	0.16216216216216
scalar RSUExampleScenario.node[50].veinsmobility 	startTime 	120.6
scalar RSUExampleScenario.node[50].veinsmobility 	totalTime 	329.4
scalar RSUExampleScenario.node[50].veinsmobility 	stopTime 	450
scalar RSUExampleScenario.node[50].veinsmobility 	minSpeed 	0
scalar RSUExampleScenario.node[50].veinsmobility 	maxSpeed 	13.999750411659
scalar RSUExampleScenario.node[50].veinsmobility 	totalDistance 	1427.2359625543
scalar RSUExampleScenario.node[50].veinsmobility 	totalCO2Emission 	529.83265001254
scalar RSUExampleScenario.node[51].appl 	meanClusterNodes 	5
scalar RSUExampleScenario.node[51].appl 	meanClusterHeadUtility 	15.648860603722
scalar RSUExampleScenario.node[51].appl 	NumberofCH 	0.054054054054054
scalar RSUExampleScenario.node[51].appl 	NumberofON 	0.32432432432432
scalar RSUExampleScenario.node[51].appl 	NumberofFN 	0.62162162162162
scalar RSUExampleScenario.node[51].veinsmobility 	startTime 	123
scalar RSUExampleScenario.node[51].veinsmobility 	totalTime 	327
scalar RSUExampleScenario.node[51].veinsmobility 	stopTime 	450
scalar RSUExampleScenario.node[51].veinsmobility 	minSpeed 	0
scalar RSUExampleScenario.node[51].veinsmobility 	maxSpeed 	13.999898043114
scalar RSUExampleScenario.node[51].veinsmobility 	totalDistance 	1393.3157570825
scalar RSUExampleScenario.node[51].veinsmobility 	totalCO2Emission 	525.78631543596
scalar RSUExampleScenario.node[52].appl 	meanClusterNodes 	7.25
scalar RSUExampleScenario.node[52].appl 	meanClusterHeadUtility 	8.4550712764176
scalar RSUExampleScenario.node[52].appl 	NumberofCH 	0.10810810810811
scalar RSUExampleScenario.node[52].appl 	NumberofON 	0.51351351351351
scalar RSUExampleScenario.node[52].appl 	NumberofFN 	0.37837837837838
scalar RSUExampleScenario.node[52].veinsmobility 	startTime 	125.4
scalar RSUExampleScenario.node[52].veinsmobility 	totalTime 	324.6
scalar RSUExampleScenario.node[52].veinsmobility 	stopTime 	450
scalar RSUExampleScenario.node[52].veinsmobility 	minSpeed 	0
scalar RSUExampleScenario.node[52].veinsmobility 	maxSpeed 	13.999545906663
scalar RSUExampleScenario.node[52].veinsmobility 	totalDistance 	1359.2725740325
scalar RSUExampleScenario.node[52].veinsmobility 	totalCO2Emission 	519.88658333191
scalar RSUExampleScenario.node[53].appl 	meanClusterNodes 	4
scalar RSUExampleScenario.node[53].appl 	meanClusterHeadUtility 	15.729719670901
scalar RSUExampleScenario.node[53].appl 	NumberofCH 	0.054054054054054
scalar RSUExampleScenario.node[53].appl 	NumberofON 	0.72972972972973
scalar RSUExampleScenario.node[53].appl 	NumberofFN 	0.21621621621622
scalar RSUExampleScenario.node[53].veinsmobility 	startTime 	127.8
scalar RSUExampleScenario.node[53].veinsmobility 	totalTime 	322.2
scalar RSUExampleScenario.node[53].veinsmobility 	stopTime 	450
scalar RSUExampleScenario.node[53].veinsmobility 	minSpeed 	0
scalar RSUExampleScenario.node[53].veinsmobility 	maxSpeed 	13.99996891811
scalar RSUExampleScenario.node[53].veinsmobility 	totalDistance 	1324.7075418637
scalar RSUExampleScenario.node[53].veinsmobility 	totalCO2Emission 	511.52296219522
scalar RSUExampleScenario.node[54].appl 	meanClusterNodes 	6.75
scalar RSUExampleScenario.node[54].appl 	meanClusterHeadUtility 	7.9202181408408
scalar RSUExampleScenario.node[54].appl 	NumberofCH 	0.10810810810811
scalar RSUExampleScenario.node[54].appl 	NumberofON 	0.72972972972973
scalar RSUExampleScenario.node[54].appl 	NumberofFN 	0.16216216216216
scalar RSUExampleScenario.node[54].veinsmobility 	startTime 	130.2
scalar RSUExampleScenario.node[54].veinsmobility 	totalTime 	319.8
scalar RSUExampleScenario.node[54].veinsmobility 	stopTime 	450
scalar RSUExampleScenario.node[54].veinsmobility 	minSpeed 	0
scalar RSUExampleScenario.node[54].veinsmobility 	maxSpeed 	13.999826322612
scalar RSUExampleScenario.node[54].veinsmobility 	totalDistance 	1290.0930879811
scalar RSUExampleScenario.node[54].veinsmobility 	totalCO2Emission 	508.1134213951
scalar RSUExampleScenario.node[55].appl 	meanClusterNodes 	8.5
scalar RSUExampleScenario.node[55].appl 	meanClusterHeadUtility 	8.5314924852851
scalar RSUExampleScenario.node[55].appl 	NumberofCH 	0.10810810810811
scalar RSUExampleScenario.node[55].appl 	NumberofON 	0.43243243243243
scalar RSUExampleScenario.node[55].appl 	NumberofFN 	0.45945945945946
scalar RSUExampleScenario.node[55].veinsmobility 	startTime 	132.6
scalar RSUExampleScenario.node[55].veinsmobility 	totalTime 	317.4
scalar RSUExampleScenario.node[55].veinsmobility 	stopTime 	450
scalar RSUExampleScenario.node[55].veinsmobility 	minSpeed 	0
scalar RSUExampleScenario.node[55].veinsmobility 	maxSpeed 	13.999921356211
scalar RSUExampleScenario.node[55].veinsmobility 	totalDistance 	1258.36095836
scalar RSUExampleScenario.node[55].veinsmobility 	totalCO2Emission 	502.6887724699
scalar RSUExampleScenario.node[56].appl 	meanClusterNodes 	6.25
scalar RSUExampleScenario.node[56].appl 	meanClusterHeadUtility 	8.6618582388051
scalar RSUExampleScenario.node[56].appl 	NumberofCH 	0.10810810810811
scalar RSUExampleScenario.node[56].appl 	NumberofON 	0.62162162162162
scalar RSUExampleScenario.node[56].appl 	NumberofFN 	0.27027027027027
scalar RSUExampleScenario.node[56].veinsmobility 	startTime 	135
scalar RSUExampleScenario.node[56].veinsmobility 	totalTime 	315
scalar RSUExampleScenario.node[56].veinsmobility 	stopTime 	450
scalar RSUExampleScenario.node[56].veinsmobility 	minSpeed 	0
scalar RSUExampleScenario.node[56].veinsmobility 	maxSpeed 	13.999948624638
scalar RSUExampleScenario.node[56].veinsmobility 	totalDistance 	1224.245736045
scalar RSUExampleScenario.node[56].veinsmobility 	totalCO2Emission 	494.12040862472
scalar RSUExampleScenario.node[57].appl 	meanClusterNodes 	5.5
scalar RSUExampleScenario.node[57].appl 	meanClusterHeadUtility 	8.638904095332
scalar RSUExampleScenario.node[57].appl 	NumberofCH 	0.10810810810811
scalar RSUExampleScenario.node[57].appl 	NumberofON 	0.59459459459459
scalar RSUExampleScenario.node[57].appl 	NumberofFN 	0.2972972972973
scalar RSUExampleScenario.node[57].veinsmobility 	startTime 	137.4
scalar RSUExampleScenario.node[57].veinsmobility 	totalTime 	312.6
scalar RSUExampleScenario.node[57].veinsmobility 	stopTime 	450
scalar RSUExampleScenario.node[57].veinsmobility 	minSpeed 	0
scalar RSUExampleScenario.node[57].veinsmobility 	maxSpeed 	13.998629245802
scalar RSUExampleScenario.node[57].veinsmobility 	totalDistance 	1190.8798925886
scalar RSUExampleScenario.node[57].veinsmobility 	totalCO2Emission 	490.49347688824
scalar RSUExampleScenario.node[58].appl 	meanClusterNodes 	7.5
scalar RSUExampleScenario.node[58].appl 	meanClusterHeadUtility 	8.7070335118979
scalar RSUExampleScenario.node[58].appl 	NumberofCH 	0.10810810810811
scalar RSUExampleScenario.node[58].appl 	NumberofON 	0.67567567567568
scalar RSUExampleScenario.node[58].appl 	NumberofFN 	0.21621621621622
scalar RSUExampleScenario.node[58].veinsmobility 	startTime 	139.8
scalar RSUExampleScenario.node[58].veinsmobility 	totalTime 	310.2
scalar RSUExampleScenario.node[58].veinsmobility 	stopTime 	450
scalar RSUExampleScenario.node[58].veinsmobility 	minSpeed 	0
scalar RSUExampleScenario.node[58].veinsmobility 	maxSpeed 	13.999577579354
scalar RSUExampleScenario.node[58].veinsmobility 	totalDistance 	1157.6950878091
scalar RSUExampleScenario.node[58].veinsmobility 	totalCO2Emission 	484.36446141918
scalar RSUExampleScenario.node[59].appl 	meanClusterNodes 	4.5
scalar RSUExampleScenario.node[59].appl 	meanClusterHeadUtility 	15.696377189399
scalar RSUExampleScenario.node[59].appl 	NumberofCH 	0.054054054054054
scalar RSUExampleScenario.node[59].appl 	NumberofON 	0.86486486486486
scalar RSUExampleScenario.node[59].appl 	NumberofFN 	0.081081081081081
scalar RSUExampleScenario.node[59].veinsmobility 	startTime 	142.2
scalar RSUExampleScenario.node[59].veinsmobility 	totalTime 	307.8
scalar RSUExampleScenario.node[59].veinsmobility 	stopTime 	450
scalar RSUExampleScenario.node[59].veinsmobility 	minSpeed 	0
scalar RSUExampleScenario.node[59].veinsmobility 	maxSpeed 	13.999877279066
scalar RSUExampleScenario.node[59].veinsmobility 	totalDistance 	1124.8134125796
scalar RSUExampleScenario.node[59].veinsmobility 	totalCO2Emission 	478.91459001732
scalar RSUExampleScenario.node[6].appl 	meanClusterNodes 	5.5
scalar RSUExampleScenario.node[6].appl 	meanClusterHeadUtility 	9.8783112795354
scalar RSUExampleScenario.node[6].appl 	NumberofCH 	0.10810810810811
scalar RSUExampleScenario.node[6].appl 	NumberofON 	0.35135135135135
scalar RSUExampleScenario.node[6].appl 	NumberofFN 	0.54054054054054
scalar RSUExampleScenario.node[6].veinsmobility 	startTime 	14.5
scalar RSUExampleScenario.node[6].veinsmobility 	totalTime 	435.5
scalar RSUExampleScenario.node[6].veinsmobility 	stopTime 	450
scalar RSUExampleScenario.node[6].veinsmobility 	minSpeed 	0
scalar RSUExampleScenario.node[6].veinsmobility 	maxSpeed 	13.999937087421
scalar RSUExampleScenario.node[6].veinsmobility 	totalDistance 	2905.7702056263
scalar RSUExampleScenario.node[6].veinsmobility 	totalCO2Emission 	778.3423766972
scalar RSUExampleScenario.node[60].appl 	meanClusterNodes 	5
scalar RSUExampleScenario.node[60].appl 	meanClusterHeadUtility 	7.6815245029162
scalar RSUExampleScenario.node[60].appl 	NumberofCH 	0.10810810810811
scalar RSUExampleScenario.node[60].appl 	NumberofON 	0.7027027027027
scalar RSUExampleScenario.node[60].appl 	NumberofFN 	0.18918918918919
scalar RSUExampleScenario.node[60].veinsmobility 	startTime 	144.7
scalar RSUExampleScenario.node[60].veinsmobility 	totalTime 	305.3
scalar RSUExampleScenario.node[60].veinsmobility 	stopTime 	450
scalar RSUExampleScenario.node[60].veinsmobility 	minSpeed 	0
scalar RSUExampleScenario.node[60].veinsmobility 	maxSpeed 	13.999306706688
scalar RSUExampleScenario.node[60].veinsmobility 	totalDistance 	1090.2034299486
scalar RSUExampleScenario.node[60].veinsmobility 	totalCO2Emission 	474.82353394004
scalar RSUExampleScenario.node[61].appl 	meanClusterNodes 	6
scalar RSUExampleScenario.node[61].appl 	meanClusterHeadUtility 	8.1094791368747
scalar RSUExampleScenario.node[61].appl 	NumberofCH 	0.10810810810811
scalar RSUExampleScenario.node[61].appl 	NumberofON 	0.67567567567568
scalar RSUExampleScenario.node[61].appl 	NumberofFN 	0.21621621621622
scalar RSUExampleScenario.node[61].veinsmobility 	startTime 	147.1
scalar RSUExampleScenario.node[61].veinsmobility 	totalTime 	302.9
scalar RSUExampleScenario.node[61].veinsmobility 	stopTime 	450
scalar RSUExampleScenario.node[61].veinsmobility 	minSpeed 	0
scalar RSUExampleScenario.node[61].veinsmobility 	maxSpeed 	13.999925270921
scalar RSUExampleScenario.node[61].veinsmobility 	totalDistance 	1058.2975191808
scalar RSUExampleScenario.node[61].veinsmobility 	totalCO2Emission 	469.42931962751
scalar RSUExampleScenario.node[62].appl 	meanClusterNodes 	8
scalar RSUExampleScenario.node[62].appl 	meanClusterHeadUtility 	36.581179750856
scalar RSUExampleScenario.node[62].appl 	NumberofCH 	0.027027027027027
scalar RSUExampleScenario.node[62].appl 	NumberofON 	0.51351351351351
scalar RSUExampleScenario.node[62].appl 	NumberofFN 	0.45945945945946
scalar RSUExampleScenario.node[62].veinsmobility 	startTime 	149.5
scalar RSUExampleScenario.node[62].veinsmobility 	totalTime 	300.5
scalar RSUExampleScenario.node[62].veinsmobility 	stopTime 	450
scalar RSUExampleScenario.node[62].veinsmobility 	minSpeed 	0
scalar RSUExampleScenario.node[62].veinsmobility 	maxSpeed 	13.999857992397
scalar RSUExampleScenario.node[62].veinsmobility 	totalDistance 	1024.6578623506
scalar RSUExampleScenario.node[62].veinsmobility 	totalCO2Emission 	461.13468724888
scalar RSUExampleScenario.node[63].appl 	meanClusterNodes 	9.5
scalar RSUExampleScenario.node[63].appl 	meanClusterHeadUtility 	8.9895623606262
scalar RSUExampleScenario.node[63].appl 	NumberofCH 	0.10810810810811
scalar RSUExampleScenario.node[63].appl 	NumberofON 	0.37837837837838
scalar RSUExampleScenario.node[63].appl 	NumberofFN 	0.51351351351351
scalar RSUExampleScenario.node[63].veinsmobility 	startTime 	151.9
scalar RSUExampleScenario.node[63].veinsmobility 	totalTime 	298.1
scalar RSUExampleScenario.node[63].veinsmobility 	stopTime 	450
scalar RSUExampleScenario.node[63].veinsmobility 	minSpeed 	0
scalar RSUExampleScenario.node[63].veinsmobility 	maxSpeed 	13.999365325118
scalar RSUExampleScenario.node[63].veinsmobility 	totalDistance 	985.82508107506
scalar RSUExampleScenario.node[63].veinsmobility 	totalCO2Emission 	449.64742710342
scalar RSUExampleScenario.node[64].appl 	meanClusterNodes 	1
scalar RSUExampleScenario.node[64].appl 	meanClusterHeadUtility 	16.185142550664
scalar RSUExampleScenario.node[64].appl 	NumberofCH 	0.054054054054054
scalar RSUExampleScenario.node[64].appl 	NumberofON 	0.54054054054054
scalar RSUExampleScenario.node[64].appl 	NumberofFN 	0.40540540540541
scalar RSUExampleScenario.node[64].veinsmobility 	startTime 	154.3
scalar RSUExampleScenario.node[64].veinsmobility 	totalTime 	295.7
scalar RSUExampleScenario.node[64].veinsmobility 	stopTime 	450
scalar RSUExampleScenario.node[64].veinsmobility 	minSpeed 	0
scalar RSUExampleScenario.node[64].veinsmobility 	maxSpeed 	13.999826737132
scalar RSUExampleScenario.node[64].veinsmobility 	totalDistance 	953.63193994018
scalar RSUExampleScenario.node[64].veinsmobility 	totalCO2Emission 	437.52398938369
scalar RSUExampleScenario.node[65].appl 	meanClusterNodes 	5.25
scalar RSUExampleScenario.node[65].appl 	meanClusterHeadUtility 	8.600028900281
scalar RSUExampleScenario.node[65].appl 	NumberofCH 	0.10810810810811
scalar RSUExampleScenario.node[65].appl 	NumberofON 	0.67567567567568
scalar RSUExampleScenario.node[65].appl 	NumberofFN 	0.21621621621622
scalar RSUExampleScenario.node[65].veinsmobility 	startTime 	156.7
scalar RSUExampleScenario.node[65].veinsmobility 	totalTime 	293.3
scalar RSUExampleScenario.node[65].veinsmobility 	stopTime 	450
scalar RSUExampleScenario.node[65].veinsmobility 	minSpeed 	0
scalar RSUExampleScenario.node[65].veinsmobility 	maxSpeed 	13.999698705529
scalar RSUExampleScenario.node[65].veinsmobility 	totalDistance 	940.46441798427
scalar RSUExampleScenario.node[65].veinsmobility 	totalCO2Emission 	427.85536126849
scalar RSUExampleScenario.node[66].appl 	meanClusterNodes 	3
scalar RSUExampleScenario.node[66].appl 	meanClusterHeadUtility 	18.216364621969
scalar RSUExampleScenario.node[66].appl 	NumberofCH 	0.054054054054054
scalar RSUExampleScenario.node[66].appl 	NumberofON 	0.51351351351351
scalar RSUExampleScenario.node[66].appl 	NumberofFN 	0.43243243243243
scalar RSUExampleScenario.node[66].veinsmobility 	startTime 	159.1
scalar RSUExampleScenario.node[66].veinsmobility 	totalTime 	290.9
scalar RSUExampleScenario.node[66].veinsmobility 	stopTime 	450
scalar RSUExampleScenario.node[66].veinsmobility 	minSpeed 	0
scalar RSUExampleScenario.node[66].veinsmobility 	maxSpeed 	13.99964835162
scalar RSUExampleScenario.node[66].veinsmobility 	totalDistance 	928.01223034203
scalar RSUExampleScenario.node[66].veinsmobility 	totalCO2Emission 	424.18870514871
scalar RSUExampleScenario.node[67].appl 	meanClusterNodes 	7.5
scalar RSUExampleScenario.node[67].appl 	meanClusterHeadUtility 	17.356559806236
scalar RSUExampleScenario.node[67].appl 	NumberofCH 	0.054054054054054
scalar RSUExampleScenario.node[67].appl 	NumberofON 	0.48648648648649
scalar RSUExampleScenario.node[67].appl 	NumberofFN 	0.45945945945946
scalar RSUExampleScenario.node[67].veinsmobility 	startTime 	161.5
scalar RSUExampleScenario.node[67].veinsmobility 	totalTime 	288.5
scalar RSUExampleScenario.node[67].veinsmobility 	stopTime 	450
scalar RSUExampleScenario.node[67].veinsmobility 	minSpeed 	0
scalar RSUExampleScenario.node[67].veinsmobility 	maxSpeed 	13.99989409735
scalar RSUExampleScenario.node[67].veinsmobility 	totalDistance 	912.87391837265
scalar RSUExampleScenario.node[67].veinsmobility 	totalCO2Emission 	421.67731834394
scalar RSUExampleScenario.node[68].appl 	meanClusterNodes 	0
scalar RSUExampleScenario.node[68].appl 	meanClusterHeadUtility 	0
scalar RSUExampleScenario.node[68].appl 	NumberofCH 	0
scalar RSUExampleScenario.node[68].appl 	NumberofON 	0.2972972972973
scalar RSUExampleScenario.node[68].appl 	NumberofFN 	0.7027027027027
scalar RSUExampleScenario.node[68].veinsmobility 	startTime 	163.9
scalar RSUExampleScenario.node[68].veinsmobility 	totalTime 	286.1
scalar RSUExampleScenario.node[68].veinsmobility 	stopTime 	450
scalar RSUExampleScenario.node[68].veinsmobility 	minSpeed 	0
scalar RSUExampleScenario.node[68].veinsmobility 	maxSpeed 	13.999839530773
scalar RSUExampleScenario.node[68].veinsmobility 	totalDistance 	893.25117379451
scalar RSUExampleScenario.node[68].veinsmobility 	totalCO2Emission 	421.11896789435
scalar RSUExampleScenario.node[69].appl 	meanClusterNodes 	8.5
scalar RSUExampleScenario.node[69].appl 	meanClusterHeadUtility 	16.480142241166
scalar RSUExampleScenario.node[69].appl 	NumberofCH 	0.054054054054054
scalar RSUExampleScenario.node[69].appl 	NumberofON 	0.54054054054054
scalar RSUExampleScenario.node[69].appl 	NumberofFN 	0.40540540540541
scalar RSUExampleScenario.node[69].veinsmobility 	startTime 	166.3
scalar RSUExampleScenario.node[69].veinsmobility 	totalTime 	283.7
scalar RSUExampleScenario.node[69].veinsmobility 	stopTime 	450
scalar RSUExampleScenario.node[69].veinsmobility 	minSpeed 	0
scalar RSUExampleScenario.node[69].veinsmobility 	maxSpeed 	13.999835556769
scalar RSUExampleScenario.node[69].veinsmobility 	totalDistance 	860.16963000545
scalar RSUExampleScenario.node[69].veinsmobility 	totalCO2Emission 	412.89338479883
scalar RSUExampleScenario.node[7].appl 	meanClusterNodes 	2
scalar RSUExampleScenario.node[7].appl 	meanClusterHeadUtility 	9.4886158464254
scalar RSUExampleScenario.node[7].appl 	NumberofCH 	0.10810810810811
scalar RSUExampleScenario.node[7].appl 	NumberofON 	0.45945945945946
scalar RSUExampleScenario.node[7].appl 	NumberofFN 	0.43243243243243
scalar RSUExampleScenario.node[7].veinsmobility 	startTime 	16.9
scalar RSUExampleScenario.node[7].veinsmobility 	totalTime 	433.1
scalar RSUExampleScenario.node[7].veinsmobility 	stopTime 	450
scalar RSUExampleScenario.node[7].veinsmobility 	minSpeed 	0
scalar RSUExampleScenario.node[7].veinsmobility 	maxSpeed 	13.999988204385
scalar RSUExampleScenario.node[7].veinsmobility 	totalDistance 	2884.9482628232
scalar RSUExampleScenario.node[7].veinsmobility 	totalCO2Emission 	777.45508602672
scalar RSUExampleScenario.node[70].appl 	meanClusterNodes 	8.5
scalar RSUExampleScenario.node[70].appl 	meanClusterHeadUtility 	17.551381051511
scalar RSUExampleScenario.node[70].appl 	NumberofCH 	0.054054054054054
scalar RSUExampleScenario.node[70].appl 	NumberofON 	0.45945945945946
scalar RSUExampleScenario.node[70].appl 	NumberofFN 	0.48648648648649
scalar RSUExampleScenario.node[70].veinsmobility 	startTime 	168.8
scalar RSUExampleScenario.node[70].veinsmobility 	totalTime 	281.2
scalar RSUExampleScenario.node[70].veinsmobility 	stopTime 	450
scalar RSUExampleScenario.node[70].veinsmobility 	minSpeed 	0
scalar RSUExampleScenario.node[70].veinsmobility 	maxSpeed 	13.999853954618
scalar RSUExampleScenario.node[70].veinsmobility 	totalDistance 	825.91103025988
scalar RSUExampleScenario.node[70].veinsmobility 	totalCO2Emission 	407.33962852711
scalar RSUExampleScenario.node[71].appl 	meanClusterNodes 	5.25
scalar RSUExampleScenario.node[71].appl 	meanClusterHeadUtility 	8.1092129868296
scalar RSUExampleScenario.node[71].appl 	NumberofCH 	0.10810810810811
scalar RSUExampleScenario.node[71].appl 	NumberofON 	0.64864864864865
scalar RSUExampleScenario.node[71].appl 	NumberofFN 	0.24324324324324
scalar RSUExampleScenario.node[71].veinsmobility 	startTime 	171.2
scalar RSUExampleScenario.node[71].veinsmobility 	totalTime 	278.8
scalar RSUExampleScenario.node[71].veinsmobility 	stopTime 	450
scalar RSUExampleScenario.node[71].veinsmobility 	minSpeed 	0
scalar RSUExampleScenario.node[71].veinsmobility 	maxSpeed 	13.999369827269
scalar RSUExampleScenario.node[71].veinsmobility 	totalDistance 	794.88492346466
scalar RSUExampleScenario.node[71].veinsmobility 	totalCO2Emission 	402.40963341764
scalar RSUExampleScenario.node[72].appl 	meanClusterNodes 	3.25
scalar RSUExampleScenario.node[72].appl 	meanClusterHeadUtility 	7.8355984113282
scalar RSUExampleScenario.node[72].appl 	NumberofCH 	0.10810810810811
scalar RSUExampleScenario.node[72].appl 	NumberofON 	0.67567567567568
scalar RSUExampleScenario.node[72].appl 	NumberofFN 	0.21621621621622
scalar RSUExampleScenario.node[72].veinsmobility 	startTime 	173.6
scalar RSUExampleScenario.node[72].veinsmobility 	totalTime 	276.4
scalar RSUExampleScenario.node[72].veinsmobility 	stopTime 	450
scalar RSUExampleScenario.node[72].veinsmobility 	minSpeed 	0
scalar RSUExampleScenario.node[72].veinsmobility 	maxSpeed 	13.999897872827
scalar RSUExampleScenario.node[72].veinsmobility 	totalDistance 	758.66807288482
scalar RSUExampleScenario.node[72].veinsmobility 	totalCO2Emission 	395.45244075008
scalar RSUExampleScenario.node[73].appl 	meanClusterNodes 	8
scalar RSUExampleScenario.node[73].appl 	meanClusterHeadUtility 	11.997625895807
scalar RSUExampleScenario.node[73].appl 	NumberofCH 	0.081081081081081
scalar RSUExampleScenario.node[73].appl 	NumberofON 	0.48648648648649
scalar RSUExampleScenario.node[73].appl 	NumberofFN 	0.43243243243243
scalar RSUExampleScenario.node[73].veinsmobility 	startTime 	176
scalar RSUExampleScenario.node[73].veinsmobility 	totalTime 	274
scalar RSUExampleScenario.node[73].veinsmobility 	stopTime 	450
scalar RSUExampleScenario.node[73].veinsmobility 	minSpeed 	0
scalar RSUExampleScenario.node[73].veinsmobility 	maxSpeed 	13.999521410784
scalar RSUExampleScenario.node[73].veinsmobility 	totalDistance 	724.91257121722
scalar RSUExampleScenario.node[73].veinsmobility 	totalCO2Emission 	392.29913677264
scalar RSUExampleScenario.node[74].appl 	meanClusterNodes 	0
scalar RSUExampleScenario.node[74].appl 	meanClusterHeadUtility 	0
scalar RSUExampleScenario.node[74].appl 	NumberofCH 	0.054054054054054
scalar RSUExampleScenario.node[74].appl 	NumberofON 	0.2972972972973
scalar RSUExampleScenario.node[74].appl 	NumberofFN 	0.64864864864865
scalar RSUExampleScenario.node[74].veinsmobility 	startTime 	178.4
scalar RSUExampleScenario.node[74].veinsmobility 	totalTime 	271.6
scalar RSUExampleScenario.node[74].veinsmobility 	stopTime 	450
scalar RSUExampleScenario.node[74].veinsmobility 	minSpeed 	0
scalar RSUExampleScenario.node[74].veinsmobility 	maxSpeed 	13.998826205595
scalar RSUExampleScenario.node[74].veinsmobility 	totalDistance 	691.2893023817
scalar RSUExampleScenario.node[74].veinsmobility 	totalCO2Emission 	384.44496250583
scalar RSUExampleScenario.node[75].appl 	meanClusterNodes 	2.5
scalar RSUExampleScenario.node[75].appl 	meanClusterHeadUtility 	16.386590200104
scalar RSUExampleScenario.node[75].appl 	NumberofCH 	0.054054054054054
scalar RSUExampleScenario.node[75].appl 	NumberofON 	0.45945945945946
scalar RSUExampleScenario.node[75].appl 	NumberofFN 	0.48648648648649
scalar RSUExampleScenario.node[75].veinsmobility 	startTime 	180.8
scalar RSUExampleScenario.node[75].veinsmobility 	totalTime 	269.2
scalar RSUExampleScenario.node[75].veinsmobility 	stopTime 	450
scalar RSUExampleScenario.node[75].veinsmobility 	minSpeed 	0
scalar RSUExampleScenario.node[75].veinsmobility 	maxSpeed 	13.99999063666
scalar RSUExampleScenario.node[75].veinsmobility 	totalDistance 	658.46022195772
scalar RSUExampleScenario.node[75].veinsmobility 	totalCO2Emission 	379.57629698456
scalar RSUExampleScenario.node[76].appl 	meanClusterNodes 	0
scalar RSUExampleScenario.node[76].appl 	meanClusterHeadUtility 	0
scalar RSUExampleScenario.node[76].appl 	NumberofCH 	0
scalar RSUExampleScenario.node[76].appl 	NumberofON 	0.45945945945946
scalar RSUExampleScenario.node[76].appl 	NumberofFN 	0.54054054054054
scalar RSUExampleScenario.node[76].veinsmobility 	startTime 	183.2
scalar RSUExampleScenario.node[76].veinsmobility 	totalTime 	266.8
scalar RSUExampleScenario.node[76].veinsmobility 	stopTime 	450
scalar RSUExampleScenario.node[76].veinsmobility 	minSpeed 	0
scalar RSUExampleScenario.node[76].veinsmobility 	maxSpeed 	13.999285142203
scalar RSUExampleScenario.node[76].veinsmobility 	totalDistance 	625.33313383357
scalar RSUExampleScenario.node[76].veinsmobility 	totalCO2Emission 	373.70573039012
scalar RSUExampleScenario.node[77].appl 	meanClusterNodes 	10
scalar RSUExampleScenario.node[77].appl 	meanClusterHeadUtility 	35.431920437247
scalar RSUExampleScenario.node[77].appl 	NumberofCH 	0.027027027027027
scalar RSUExampleScenario.node[77].appl 	NumberofON 	0.56756756756757
scalar RSUExampleScenario.node[77].appl 	NumberofFN 	0.40540540540541
scalar RSUExampleScenario.node[77].veinsmobility 	startTime 	185.6
scalar RSUExampleScenario.node[77].veinsmobility 	totalTime 	264.4
scalar RSUExampleScenario.node[77].veinsmobility 	stopTime 	450
scalar RSUExampleScenario.node[77].veinsmobility 	minSpeed 	0
scalar RSUExampleScenario.node[77].veinsmobility 	maxSpeed 	13.999714238634
scalar RSUExampleScenario.node[77].veinsmobility 	totalDistance 	591.22155837116
scalar RSUExampleScenario.node[77].veinsmobility 	totalCO2Emission 	368.6235249503
scalar RSUExampleScenario.node[78].appl 	meanClusterNodes 	4.5
scalar RSUExampleScenario.node[78].appl 	meanClusterHeadUtility 	18.375962624861
scalar RSUExampleScenario.node[78].appl 	NumberofCH 	0.054054054054054
scalar RSUExampleScenario.node[78].appl 	NumberofON 	0.45945945945946
scalar RSUExampleScenario.node[78].appl 	NumberofFN 	0.48648648648649
scalar RSUExampleScenario.node[78].veinsmobility 	startTime 	188
scalar RSUExampleScenario.node[78].veinsmobility 	totalTime 	262
scalar RSUExampleScenario.node[78].veinsmobility 	stopTime 	450
scalar RSUExampleScenario.node[78].veinsmobility 	minSpeed 	0
scalar RSUExampleScenario.node[78].veinsmobility 	maxSpeed 	13.999943496485
scalar RSUExampleScenario.node[78].veinsmobility 	totalDistance 	557.46328601549
scalar RSUExampleScenario.node[78].veinsmobility 	totalCO2Emission 	362.03812553531
scalar RSUExampleScenario.node[79].appl 	meanClusterNodes 	0
scalar RSUExampleScenario.node[79].appl 	meanClusterHeadUtility 	0
scalar RSUExampleScenario.node[79].appl 	NumberofCH 	0
scalar RSUExampleScenario.node[79].appl 	NumberofON 	0.7027027027027
scalar RSUExampleScenario.node[79].appl 	NumberofFN 	0.2972972972973
scalar RSUExampleScenario.node[79].veinsmobility 	startTime 	190.4
scalar RSUExampleScenario.node[79].veinsmobility 	totalTime 	259.6
scalar RSUExampleScenario.node[79].veinsmobility 	stopTime 	450
scalar RSUExampleScenario.node[79].veinsmobility 	minSpeed 	0
scalar RSUExampleScenario.node[79].veinsmobility 	maxSpeed 	13.999812767187
scalar RSUExampleScenario.node[79].veinsmobility 	totalDistance 	523.01941063677
scalar RSUExampleScenario.node[79].veinsmobility 	totalCO2Emission 	356.38697251311
scalar RSUExampleScenario.node[8].appl 	meanClusterNodes 	2.75
scalar RSUExampleScenario.node[8].appl 	meanClusterHeadUtility 	9.2979922747948
scalar RSUExampleScenario.node[8].appl 	NumberofCH 	0.10810810810811
scalar RSUExampleScenario.node[8].appl 	NumberofON 	0.45945945945946
scalar RSUExampleScenario.node[8].appl 	NumberofFN 	0.43243243243243
scalar RSUExampleScenario.node[8].veinsmobility 	startTime 	19.3
scalar RSUExampleScenario.node[8].veinsmobility 	totalTime 	430.7
scalar RSUExampleScenario.node[8].veinsmobility 	stopTime 	450
scalar RSUExampleScenario.node[8].veinsmobility 	minSpeed 	0
scalar RSUExampleScenario.node[8].veinsmobility 	maxSpeed 	13.999862122887
scalar RSUExampleScenario.node[8].veinsmobility 	totalDistance 	2861.1271137533
scalar RSUExampleScenario.node[8].veinsmobility 	totalCO2Emission 	771.26236454105
scalar RSUExampleScenario.node[80].appl 	meanClusterNodes 	3.6666666666667
scalar RSUExampleScenario.node[80].appl 	meanClusterHeadUtility 	13.778988277692
scalar RSUExampleScenario.node[80].appl 	NumberofCH 	0.081081081081081
scalar RSUExampleScenario.node[80].appl 	NumberofON 	0.64864864864865
scalar RSUExampleScenario.node[80].appl 	NumberofFN 	0.27027027027027
scalar RSUExampleScenario.node[80].veinsmobility 	startTime 	192.9
scalar RSUExampleScenario.node[80].veinsmobility 	totalTime 	257.1
scalar RSUExampleScenario.node[80].veinsmobility 	stopTime 	450
scalar RSUExampleScenario.node[80].veinsmobility 	minSpeed 	0
scalar RSUExampleScenario.node[80].veinsmobility 	maxSpeed 	13.997499997304
scalar RSUExampleScenario.node[80].veinsmobility 	totalDistance 	490.47851257024
scalar RSUExampleScenario.node[80].veinsmobility 	totalCO2Emission 	350.43288972735
scalar RSUExampleScenario.node[81].appl 	meanClusterNodes 	6.75
scalar RSUExampleScenario.node[81].appl 	meanClusterHeadUtility 	8.0051112138263
scalar RSUExampleScenario.node[81].appl 	NumberofCH 	0.10810810810811
scalar RSUExampleScenario.node[81].appl 	NumberofON 	0.16216216216216
scalar RSUExampleScenario.node[81].appl 	NumberofFN 	0.72972972972973
scalar RSUExampleScenario.node[81].veinsmobility 	startTime 	195.3
scalar RSUExampleScenario.node[81].veinsmobility 	totalTime 	254.7
scalar RSUExampleScenario.node[81].veinsmobility 	stopTime 	450
scalar RSUExampleScenario.node[81].veinsmobility 	minSpeed 	0
scalar RSUExampleScenario.node[81].veinsmobility 	maxSpeed 	13.999807419137
scalar RSUExampleScenario.node[81].veinsmobility 	totalDistance 	457.37337938355
scalar RSUExampleScenario.node[81].veinsmobility 	totalCO2Emission 	345.11762168383
scalar RSUExampleScenario.node[82].appl 	meanClusterNodes 	9.75
scalar RSUExampleScenario.node[82].appl 	meanClusterHeadUtility 	8.8679026065195
scalar RSUExampleScenario.node[82].appl 	NumberofCH 	0.10810810810811
scalar RSUExampleScenario.node[82].appl 	NumberofON 	0.45945945945946
scalar RSUExampleScenario.node[82].appl 	NumberofFN 	0.43243243243243
scalar RSUExampleScenario.node[82].veinsmobility 	startTime 	197.7
scalar RSUExampleScenario.node[82].veinsmobility 	totalTime 	252.3
scalar RSUExampleScenario.node[82].veinsmobility 	stopTime 	450
scalar RSUExampleScenario.node[82].veinsmobility 	minSpeed 	0
scalar RSUExampleScenario.node[82].veinsmobility 	maxSpeed 	13.996366914427
scalar RSUExampleScenario.node[82].veinsmobility 	totalDistance 	423.57010671723
scalar RSUExampleScenario.node[82].veinsmobility 	totalCO2Emission 	339.18662149671
scalar RSUExampleScenario.node[83].appl 	meanClusterNodes 	0
scalar RSUExampleScenario.node[83].appl 	meanClusterHeadUtility 	0
scalar RSUExampleScenario.node[83].appl 	NumberofCH 	0
scalar RSUExampleScenario.node[83].appl 	NumberofON 	0.32432432432432
scalar RSUExampleScenario.node[83].appl 	NumberofFN 	0.67567567567568
scalar RSUExampleScenario.node[83].veinsmobility 	startTime 	200.1
scalar RSUExampleScenario.node[83].veinsmobility 	totalTime 	249.9
scalar RSUExampleScenario.node[83].veinsmobility 	stopTime 	450
scalar RSUExampleScenario.node[83].veinsmobility 	minSpeed 	0
scalar RSUExampleScenario.node[83].veinsmobility 	maxSpeed 	13.998283633403
scalar RSUExampleScenario.node[83].veinsmobility 	totalDistance 	391.2849979129
scalar RSUExampleScenario.node[83].veinsmobility 	totalCO2Emission 	333.2360142824
scalar RSUExampleScenario.node[84].appl 	meanClusterNodes 	4.5
scalar RSUExampleScenario.node[84].appl 	meanClusterHeadUtility 	18.615618191377
scalar RSUExampleScenario.node[84].appl 	NumberofCH 	0.054054054054054
scalar RSUExampleScenario.node[84].appl 	NumberofON 	0.43243243243243
scalar RSUExampleScenario.node[84].appl 	NumberofFN 	0.51351351351351
scalar RSUExampleScenario.node[84].veinsmobility 	startTime 	202.5
scalar RSUExampleScenario.node[84].veinsmobility 	totalTime 	247.5
scalar RSUExampleScenario.node[84].veinsmobility 	stopTime 	450
scalar RSUExampleScenario.node[84].veinsmobility 	minSpeed 	0
scalar RSUExampleScenario.node[84].veinsmobility 	maxSpeed 	13.993543277641
scalar RSUExampleScenario.node[84].veinsmobility 	totalDistance 	357.69426660077
scalar RSUExampleScenario.node[84].veinsmobility 	totalCO2Emission 	328.06516003746
scalar RSUExampleScenario.node[85].appl 	meanClusterNodes 	2
scalar RSUExampleScenario.node[85].appl 	meanClusterHeadUtility 	8.8783340494137
scalar RSUExampleScenario.node[85].appl 	NumberofCH 	0.10810810810811
scalar RSUExampleScenario.node[85].appl 	NumberofON 	0.48648648648649
scalar RSUExampleScenario.node[85].appl 	NumberofFN 	0.40540540540541
scalar RSUExampleScenario.node[85].veinsmobility 	startTime 	204.9
scalar RSUExampleScenario.node[85].veinsmobility 	totalTime 	245.1
scalar RSUExampleScenario.node[85].veinsmobility 	stopTime 	450
scalar RSUExampleScenario.node[85].veinsmobility 	minSpeed 	0
scalar RSUExampleScenario.node[85].veinsmobility 	maxSpeed 	13.972815679426
scalar RSUExampleScenario.node[85].veinsmobility 	totalDistance 	322.37394701478
scalar RSUExampleScenario.node[85].veinsmobility 	totalCO2Emission 	322.78537700379
scalar RSUExampleScenario.node[86].appl 	meanClusterNodes 	0
scalar RSUExampleScenario.node[86].appl 	meanClusterHeadUtility 	0
scalar RSUExampleScenario.node[86].appl 	NumberofCH 	0
scalar RSUExampleScenario.node[86].appl 	NumberofON 	0.40540540540541
scalar RSUExampleScenario.node[86].appl 	NumberofFN 	0.59459459459459
scalar RSUExampleScenario.node[86].veinsmobility 	startTime 	207.3
scalar RSUExampleScenario.node[86].veinsmobility 	totalTime 	242.7
scalar RSUExampleScenario.node[86].veinsmobility 	stopTime 	450
scalar RSUExampleScenario.node[86].veinsmobility 	minSpeed 	0
scalar RSUExampleScenario.node[86].veinsmobility 	maxSpeed 	13.826136935644
scalar RSUExampleScenario.node[86].veinsmobility 	totalDistance 	288.0762761195
scalar RSUExampleScenario.node[86].veinsmobility 	totalCO2Emission 	316.35783839855
scalar RSUExampleScenario.node[87].appl 	meanClusterNodes 	0
scalar RSUExampleScenario.node[87].appl 	meanClusterHeadUtility 	0
scalar RSUExampleScenario.node[87].appl 	NumberofCH 	0.054054054054054
scalar RSUExampleScenario.node[87].appl 	NumberofON 	0.59459459459459
scalar RSUExampleScenario.node[87].appl 	NumberofFN 	0.35135135135135
scalar RSUExampleScenario.node[87].veinsmobility 	startTime 	209.7
scalar RSUExampleScenario.node[87].veinsmobility 	totalTime 	240.3
scalar RSUExampleScenario.node[87].veinsmobility 	stopTime 	450
scalar RSUExampleScenario.node[87].veinsmobility 	minSpeed 	0
scalar RSUExampleScenario.node[87].veinsmobility 	maxSpeed 	13.791749210418
scalar RSUExampleScenario.node[87].veinsmobility 	totalDistance 	249.73585869677
scalar RSUExampleScenario.node[87].veinsmobility 	totalCO2Emission 	299.1721428724
scalar RSUExampleScenario.node[88].appl 	meanClusterNodes 	0
scalar RSUExampleScenario.node[88].appl 	meanClusterHeadUtility 	0
scalar RSUExampleScenario.node[88].appl 	NumberofCH 	0
scalar RSUExampleScenario.node[88].appl 	NumberofON 	0.32432432432432
scalar RSUExampleScenario.node[88].appl 	NumberofFN 	0.67567567567568
scalar RSUExampleScenario.node[88].veinsmobility 	startTime 	212.1
scalar RSUExampleScenario.node[88].veinsmobility 	totalTime 	237.9
scalar RSUExampleScenario.node[88].veinsmobility 	stopTime 	450
scalar RSUExampleScenario.node[88].veinsmobility 	minSpeed 	0
scalar RSUExampleScenario.node[88].veinsmobility 	maxSpeed 	13.882809496694
scalar RSUExampleScenario.node[88].veinsmobility 	totalDistance 	225.99528168798
scalar RSUExampleScenario.node[88].veinsmobility 	totalCO2Emission 	287.30594347096
scalar RSUExampleScenario.node[89].appl 	meanClusterNodes 	4
scalar RSUExampleScenario.node[89].appl 	meanClusterHeadUtility 	36.679409663673
scalar RSUExampleScenario.node[89].appl 	NumberofCH 	0.027027027027027
scalar RSUExampleScenario.node[89].appl 	NumberofON 	0.51351351351351
scalar RSUExampleScenario.node[89].appl 	NumberofFN 	0.45945945945946
scalar RSUExampleScenario.node[89].veinsmobility 	startTime 	214.5
scalar RSUExampleScenario.node[89].veinsmobility 	totalTime 	235.5
scalar RSUExampleScenario.node[89].veinsmobility 	stopTime 	450
scalar RSUExampleScenario.node[89].veinsmobility 	minSpeed 	0
scalar RSUExampleScenario.node[89].veinsmobility 	maxSpeed 	13.867937562273
scalar RSUExampleScenario.node[89].veinsmobility 	totalDistance 	215.30983291685
scalar RSUExampleScenario.node[89].veinsmobility 	totalCO2Emission 	283.39276089358
scalar RSUExampleScenario.node[9].appl 	meanClusterNodes 	5
scalar RSUExampleScenario.node[9].appl 	meanClusterHeadUtility 	12.529082559286
scalar RSUExampleScenario.node[9].appl 	NumberofCH 	0.081081081081081
scalar RSUExampleScenario.node[9].appl 	NumberofON 	0.59459459459459
scalar RSUExampleScenario.node[9].appl 	NumberofFN 	0.32432432432432
scalar RSUExampleScenario.node[9].veinsmobility 	startTime 	21.7
scalar RSUExampleScenario.node[9].veinsmobility 	totalTime 	428.3
scalar RSUExampleScenario.node[9].veinsmobility 	stopTime 	450
scalar RSUExampleScenario.node[9].veinsmobility 	minSpeed 	0
scalar RSUExampleScenario.node[9].veinsmobility 	maxSpeed 	13.999954584464
scalar RSUExampleScenario.node[9].veinsmobility 	totalDistance 	2825.0393636746
scalar RSUExampleScenario.node[9].veinsmobility 	totalCO2Emission 	763.50511523643
scalar RSUExampleScenario.node[90].appl 	meanClusterNodes 	3.5
scalar RSUExampleScenario.node[90].appl 	meanClusterHeadUtility 	16.829349185705
scalar RSUExampleScenario.node[90].appl 	NumberofCH 	0.054054054054054
scalar RSUExampleScenario.node[90].appl 	NumberofON 	0.45945945945946
scalar RSUExampleScenario.node[90].appl 	NumberofFN 	0.48648648648649
scalar RSUExampleScenario.node[90].veinsmobility 	startTime 	217
scalar RSUExampleScenario.node[90].veinsmobility 	totalTime 	233
scalar RSUExampleScenario.node[90].veinsmobility 	stopTime 	450
scalar RSUExampleScenario.node[90].veinsmobility 	minSpeed 	0
scalar RSUExampleScenario.node[90].veinsmobility 	maxSpeed 	13.81050257331
scalar RSUExampleScenario.node[90].veinsmobility 	totalDistance 	201.88737522869
scalar RSUExampleScenario.node[90].veinsmobility 	totalCO2Emission 	279.97312514389
scalar RSUExampleScenario.node[91].appl 	meanClusterNodes 	3.5
scalar RSUExampleScenario.node[91].appl 	meanClusterHeadUtility 	18.587666168716
scalar RSUExampleScenario.node[91].appl 	NumberofCH 	0.054054054054054
scalar RSUExampleScenario.node[91].appl 	NumberofON 	0.54054054054054
scalar RSUExampleScenario.node[91].appl 	NumberofFN 	0.40540540540541
scalar RSUExampleScenario.node[91].veinsmobility 	startTime 	219.4
scalar RSUExampleScenario.node[91].veinsmobility 	totalTime 	230.6
scalar RSUExampleScenario.node[91].veinsmobility 	stopTime 	450
scalar RSUExampleScenario.node[91].veinsmobility 	minSpeed 	0
scalar RSUExampleScenario.node[91].veinsmobility 	maxSpeed 	13.876040133124
scalar RSUExampleScenario.node[91].veinsmobility 	totalDistance 	184.54019698417
scalar RSUExampleScenario.node[91].veinsmobility 	totalCO2Emission 	277.86120612234
scalar RSUExampleScenario.node[92].appl 	meanClusterNodes 	7
scalar RSUExampleScenario.node[92].appl 	meanClusterHeadUtility 	9.3021070842665
scalar RSUExampleScenario.node[92].appl 	NumberofCH 	0.10810810810811
scalar RSUExampleScenario.node[92].appl 	NumberofON 	0.32432432432432
scalar RSUExampleScenario.node[92].appl 	NumberofFN 	0.56756756756757
scalar RSUExampleScenario.node[92].veinsmobility 	startTime 	221.8
scalar RSUExampleScenario.node[92].veinsmobility 	totalTime 	228.2
scalar RSUExampleScenario.node[92].veinsmobility 	stopTime 	450
scalar RSUExampleScenario.node[92].veinsmobility 	minSpeed 	0
scalar RSUExampleScenario.node[92].veinsmobility 	maxSpeed 	13.869262096928
scalar RSUExampleScenario.node[92].veinsmobility 	totalDistance 	150.55712266292
scalar RSUExampleScenario.node[92].veinsmobility 	totalCO2Emission 	264.56528114878
scalar RSUExampleScenario.node[93].appl 	meanClusterNodes 	3
scalar RSUExampleScenario.node[93].appl 	meanClusterHeadUtility 	18.687332283109
scalar RSUExampleScenario.node[93].appl 	NumberofCH 	0.054054054054054
scalar RSUExampleScenario.node[93].appl 	NumberofON 	0.16216216216216
scalar RSUExampleScenario.node[93].appl 	NumberofFN 	0.78378378378378
scalar RSUExampleScenario.node[93].veinsmobility 	startTime 	224.2
scalar RSUExampleScenario.node[93].veinsmobility 	totalTime 	225.8
scalar RSUExampleScenario.node[93].veinsmobility 	stopTime 	450
scalar RSUExampleScenario.node[93].veinsmobility 	minSpeed 	0
scalar RSUExampleScenario.node[93].veinsmobility 	maxSpeed 	13.757766091355
scalar RSUExampleScenario.node[93].veinsmobility 	totalDistance 	122.85534868466
scalar RSUExampleScenario.node[93].veinsmobility 	totalCO2Emission 	250.91400464816
scalar RSUExampleScenario.node[94].appl 	meanClusterNodes 	4
scalar RSUExampleScenario.node[94].appl 	meanClusterHeadUtility 	9.3651379737181
scalar RSUExampleScenario.node[94].appl 	NumberofCH 	0.10810810810811
scalar RSUExampleScenario.node[94].appl 	NumberofON 	0.13513513513514
scalar RSUExampleScenario.node[94].appl 	NumberofFN 	0.75675675675676
scalar RSUExampleScenario.node[94].veinsmobility 	startTime 	226.6
scalar RSUExampleScenario.node[94].veinsmobility 	totalTime 	223.4
scalar RSUExampleScenario.node[94].veinsmobility 	stopTime 	450
scalar RSUExampleScenario.node[94].veinsmobility 	minSpeed 	0
scalar RSUExampleScenario.node[94].veinsmobility 	maxSpeed 	13.861694938531
scalar RSUExampleScenario.node[94].veinsmobility 	totalDistance 	111.5706084631
scalar RSUExampleScenario.node[94].veinsmobility 	totalCO2Emission 	245.82150227164
scalar RSUExampleScenario.node[95].appl 	meanClusterNodes 	4
scalar RSUExampleScenario.node[95].appl 	meanClusterHeadUtility 	8.942233748657
scalar RSUExampleScenario.node[95].appl 	NumberofCH 	0.10810810810811
scalar RSUExampleScenario.node[95].appl 	NumberofON 	0.32432432432432
scalar RSUExampleScenario.node[95].appl 	NumberofFN 	0.56756756756757
scalar RSUExampleScenario.node[95].veinsmobility 	startTime 	229
scalar RSUExampleScenario.node[95].veinsmobility 	totalTime 	221
scalar RSUExampleScenario.node[95].veinsmobility 	stopTime 	450
scalar RSUExampleScenario.node[95].veinsmobility 	minSpeed 	0
scalar RSUExampleScenario.node[95].veinsmobility 	maxSpeed 	13.761976945835
scalar RSUExampleScenario.node[95].veinsmobility 	totalDistance 	98.50965065342
scalar RSUExampleScenario.node[95].veinsmobility 	totalCO2Emission 	242.31172179592
scalar RSUExampleScenario.node[96].appl 	meanClusterNodes 	1.5
scalar RSUExampleScenario.node[96].appl 	meanClusterHeadUtility 	8.6268835707451
scalar RSUExampleScenario.node[96].appl 	NumberofCH 	0.10810810810811
scalar RSUExampleScenario.node[96].appl 	NumberofON 	0.45945945945946
scalar RSUExampleScenario.node[96].appl 	NumberofFN 	0.43243243243243
scalar RSUExampleScenario.node[96].veinsmobility 	startTime 	231.4
scalar RSUExampleScenario.node[96].veinsmobility 	totalTime 	218.6
scalar RSUExampleScenario.node[96].veinsmobility 	stopTime 	450
scalar RSUExampleScenario.node[96].veinsmobility 	minSpeed 	0
scalar RSUExampleScenario.node[96].veinsmobility 	maxSpeed 	13.821742207878
scalar RSUExampleScenario.node[96].veinsmobility 	totalDistance 	82.971694570424
scalar RSUExampleScenario.node[96].veinsmobility 	totalCO2Emission 	239.79412972232
scalar RSUExampleScenario.node[97].appl 	meanClusterNodes 	6.5
scalar RSUExampleScenario.node[97].appl 	meanClusterHeadUtility 	8.7234772461574
scalar RSUExampleScenario.node[97].appl 	NumberofCH 	0.10810810810811
scalar RSUExampleScenario.node[97].appl 	NumberofON 	0.35135135135135
scalar RSUExampleScenario.node[97].appl 	NumberofFN 	0.54054054054054
scalar RSUExampleScenario.node[97].veinsmobility 	startTime 	233.8
scalar RSUExampleScenario.node[97].veinsmobility 	totalTime 	216.2
scalar RSUExampleScenario.node[97].veinsmobility 	stopTime 	450
scalar RSUExampleScenario.node[97].veinsmobility 	minSpeed 	0
scalar RSUExampleScenario.node[97].veinsmobility 	maxSpeed 	12.923834164752
scalar RSUExampleScenario.node[97].veinsmobility 	totalDistance 	59.049301271658
scalar RSUExampleScenario.node[97].veinsmobility 	totalCO2Emission 	233.84906494383
scalar RSUExampleScenario.node[98].appl 	meanClusterNodes 	5.5
scalar RSUExampleScenario.node[98].appl 	meanClusterHeadUtility 	17.332183662372
scalar RSUExampleScenario.node[98].appl 	NumberofCH 	0.054054054054054
scalar RSUExampleScenario.node[98].appl 	NumberofON 	0.37837837837838
scalar RSUExampleScenario.node[98].appl 	NumberofFN 	0.56756756756757
scalar RSUExampleScenario.node[98].veinsmobility 	startTime 	236.2
scalar RSUExampleScenario.node[98].veinsmobility 	totalTime 	213.8
scalar RSUExampleScenario.node[98].veinsmobility 	stopTime 	450
scalar RSUExampleScenario.node[98].veinsmobility 	minSpeed 	0
scalar RSUExampleScenario.node[98].veinsmobility 	maxSpeed 	7.8086555605688
scalar RSUExampleScenario.node[98].veinsmobility 	totalDistance 	22.361745323658
scalar RSUExampleScenario.node[98].veinsmobility 	totalCO2Emission 	216.78626611366
scalar RSUExampleScenario.node[99].appl 	meanClusterNodes 	2
scalar RSUExampleScenario.node[99].appl 	meanClusterHeadUtility 	38.126334713458
scalar RSUExampleScenario.node[99].appl 	NumberofCH 	0.027027027027027
scalar RSUExampleScenario.node[99].appl 	NumberofON 	0.2972972972973
scalar RSUExampleScenario.node[99].appl 	NumberofFN 	0.67567567567568
scalar RSUExampleScenario.node[99].veinsmobility 	startTime 	238.6
scalar RSUExampleScenario.node[99].veinsmobility 	totalTime 	211.4
scalar RSUExampleScenario.node[99].veinsmobility 	stopTime 	450
scalar RSUExampleScenario.node[99].veinsmobility 	minSpeed 	0
scalar RSUExampleScenario.node[99].veinsmobility 	maxSpeed 	2.9029522530417
scalar RSUExampleScenario.node[99].veinsmobility 	totalDistance 	3.1287149131748
scalar RSUExampleScenario.node[99].veinsmobility 	totalCO2Emission 	206.95885350992
