version 2
run statisticRVV-59-20150325-02:22:21-8256
attr c 11
attr configname statisticRVV
attr datetime 20150325-02:22:21
attr experiment statisticRVV
attr inifile omnetpp.ini
attr iterationvars "$sc=\"erlangen-low.launchd.xml\", $p=1/10, $c=11"
attr iterationvars2 "$sc=\"erlangen-low.launchd.xml\", $p=1/10, $c=11, $repetition=9"
attr measurement "$sc=\"erlangen-low.launchd.xml\", $p=1/10, $c=11"
attr network RSUExampleScenario
attr p 1/10
attr processid 8256
attr repetition 9
attr replication #9
attr resultdir results
attr runnumber 59
attr sc "\"erlangen-low.launchd.xml\""
attr seedset 59

scalar . 	c 	11
scalar RSUExampleScenario.node[0].veinsmobility 	startTime 	0.1
scalar RSUExampleScenario.node[0].veinsmobility 	totalTime 	226.8
scalar RSUExampleScenario.node[0].veinsmobility 	stopTime 	227
scalar RSUExampleScenario.node[0].veinsmobility 	minSpeed 	0.24798754352401
scalar RSUExampleScenario.node[0].veinsmobility 	maxSpeed 	18.999752866302
scalar RSUExampleScenario.node[0].veinsmobility 	totalDistance 	3409.3355887649
scalar RSUExampleScenario.node[0].veinsmobility 	totalCO2Emission 	702.44552180742
scalar RSUExampleScenario.node[1].veinsmobility 	startTime 	6.1
scalar RSUExampleScenario.node[1].veinsmobility 	totalTime 	226.8
scalar RSUExampleScenario.node[1].veinsmobility 	stopTime 	233
scalar RSUExampleScenario.node[1].veinsmobility 	minSpeed 	0.24948771120701
scalar RSUExampleScenario.node[1].veinsmobility 	maxSpeed 	18.999488879724
scalar RSUExampleScenario.node[1].veinsmobility 	totalDistance 	3409.6598559203
scalar RSUExampleScenario.node[1].veinsmobility 	totalCO2Emission 	713.33389708745
scalar RSUExampleScenario.node[2].veinsmobility 	startTime 	12.1
scalar RSUExampleScenario.node[2].veinsmobility 	totalTime 	226.8
scalar RSUExampleScenario.node[2].veinsmobility 	stopTime 	239
scalar RSUExampleScenario.node[2].veinsmobility 	minSpeed 	0.25375576652936
scalar RSUExampleScenario.node[2].veinsmobility 	maxSpeed 	18.999964431245
scalar RSUExampleScenario.node[2].veinsmobility 	totalDistance 	3409.5097626752
scalar RSUExampleScenario.node[2].veinsmobility 	totalCO2Emission 	709.77307343747
scalar RSUExampleScenario.node[3].veinsmobility 	startTime 	18.1
scalar RSUExampleScenario.node[3].veinsmobility 	totalTime 	226.9
scalar RSUExampleScenario.node[3].veinsmobility 	stopTime 	245.1
scalar RSUExampleScenario.node[3].veinsmobility 	minSpeed 	0.2572616507255
scalar RSUExampleScenario.node[3].veinsmobility 	maxSpeed 	18.999845963931
scalar RSUExampleScenario.node[3].veinsmobility 	totalDistance 	3409.3059834364
scalar RSUExampleScenario.node[3].veinsmobility 	totalCO2Emission 	703.51593055166
scalar RSUExampleScenario.node[4].veinsmobility 	startTime 	24.1
scalar RSUExampleScenario.node[4].veinsmobility 	totalTime 	226.9
scalar RSUExampleScenario.node[4].veinsmobility 	stopTime 	251.1
scalar RSUExampleScenario.node[4].veinsmobility 	minSpeed 	0.2507176985289
scalar RSUExampleScenario.node[4].veinsmobility 	maxSpeed 	18.999948286242
scalar RSUExampleScenario.node[4].veinsmobility 	totalDistance 	3409.4018380323
scalar RSUExampleScenario.node[4].veinsmobility 	totalCO2Emission 	708.50957618091
scalar RSUExampleScenario.node[5].veinsmobility 	startTime 	30.1
scalar RSUExampleScenario.node[5].veinsmobility 	totalTime 	226.9
scalar RSUExampleScenario.node[5].veinsmobility 	stopTime 	257.1
scalar RSUExampleScenario.node[5].veinsmobility 	minSpeed 	0.25463017508923
scalar RSUExampleScenario.node[5].veinsmobility 	maxSpeed 	18.999906618821
scalar RSUExampleScenario.node[5].veinsmobility 	totalDistance 	3409.3750768375
scalar RSUExampleScenario.node[5].veinsmobility 	totalCO2Emission 	706.27164101963
scalar RSUExampleScenario.node[6].veinsmobility 	startTime 	36.1
scalar RSUExampleScenario.node[6].veinsmobility 	totalTime 	226.9
scalar RSUExampleScenario.node[6].veinsmobility 	stopTime 	263.1
scalar RSUExampleScenario.node[6].veinsmobility 	minSpeed 	0.25075763501762
scalar RSUExampleScenario.node[6].veinsmobility 	maxSpeed 	18.999239483736
scalar RSUExampleScenario.node[6].veinsmobility 	totalDistance 	3409.5942765285
scalar RSUExampleScenario.node[6].veinsmobility 	totalCO2Emission 	706.95494544597
scalar RSUExampleScenario.node[7].veinsmobility 	startTime 	42.1
scalar RSUExampleScenario.node[7].veinsmobility 	totalTime 	227
scalar RSUExampleScenario.node[7].veinsmobility 	stopTime 	269.2
scalar RSUExampleScenario.node[7].veinsmobility 	minSpeed 	0.24808531569457
scalar RSUExampleScenario.node[7].veinsmobility 	maxSpeed 	18.999953695009
scalar RSUExampleScenario.node[7].veinsmobility 	totalDistance 	3409.776940845
scalar RSUExampleScenario.node[7].veinsmobility 	totalCO2Emission 	706.41524406414
scalar RSUExampleScenario.node[8].veinsmobility 	startTime 	48.1
scalar RSUExampleScenario.node[8].veinsmobility 	totalTime 	227
scalar RSUExampleScenario.node[8].veinsmobility 	stopTime 	275.2
scalar RSUExampleScenario.node[8].veinsmobility 	minSpeed 	0.25562977175415
scalar RSUExampleScenario.node[8].veinsmobility 	maxSpeed 	18.999979662851
scalar RSUExampleScenario.node[8].veinsmobility 	totalDistance 	3409.7020610833
scalar RSUExampleScenario.node[8].veinsmobility 	totalCO2Emission 	706.90155409531
scalar RSUExampleScenario.node[9].veinsmobility 	startTime 	54.1
scalar RSUExampleScenario.node[9].veinsmobility 	totalTime 	226.9
scalar RSUExampleScenario.node[9].veinsmobility 	stopTime 	281.1
scalar RSUExampleScenario.node[9].veinsmobility 	minSpeed 	0.25177992579038
scalar RSUExampleScenario.node[9].veinsmobility 	maxSpeed 	18.999856061391
scalar RSUExampleScenario.node[9].veinsmobility 	totalDistance 	3409.2087773511
scalar RSUExampleScenario.node[9].veinsmobility 	totalCO2Emission 	704.68989513105
scalar RSUExampleScenario.node[10].veinsmobility 	startTime 	60.1
scalar RSUExampleScenario.node[10].veinsmobility 	totalTime 	227
scalar RSUExampleScenario.node[10].veinsmobility 	stopTime 	287.2
scalar RSUExampleScenario.node[10].veinsmobility 	minSpeed 	0.25234225720051
scalar RSUExampleScenario.node[10].veinsmobility 	maxSpeed 	18.999911614007
scalar RSUExampleScenario.node[10].veinsmobility 	totalDistance 	3409.3517734889
scalar RSUExampleScenario.node[10].veinsmobility 	totalCO2Emission 	704.26553359442
scalar RSUExampleScenario.node[11].veinsmobility 	startTime 	66.1
scalar RSUExampleScenario.node[11].veinsmobility 	totalTime 	227
scalar RSUExampleScenario.node[11].veinsmobility 	stopTime 	293.2
scalar RSUExampleScenario.node[11].veinsmobility 	minSpeed 	0.25932292378065
scalar RSUExampleScenario.node[11].veinsmobility 	maxSpeed 	18.999730849976
scalar RSUExampleScenario.node[11].veinsmobility 	totalDistance 	3409.3110883197
scalar RSUExampleScenario.node[11].veinsmobility 	totalCO2Emission 	708.80519689082
scalar RSUExampleScenario.node[12].veinsmobility 	startTime 	72.1
scalar RSUExampleScenario.node[12].veinsmobility 	totalTime 	227.3
scalar RSUExampleScenario.node[12].veinsmobility 	stopTime 	299.5
scalar RSUExampleScenario.node[12].veinsmobility 	minSpeed 	0.25552231163136
scalar RSUExampleScenario.node[12].veinsmobility 	maxSpeed 	18.999830366173
scalar RSUExampleScenario.node[12].veinsmobility 	totalDistance 	3409.5832395663
scalar RSUExampleScenario.node[12].veinsmobility 	totalCO2Emission 	708.77606609789
scalar RSUExampleScenario.node[13].veinsmobility 	startTime 	78.1
scalar RSUExampleScenario.node[13].veinsmobility 	totalTime 	226.9
scalar RSUExampleScenario.node[13].veinsmobility 	stopTime 	305.1
scalar RSUExampleScenario.node[13].veinsmobility 	minSpeed 	0.24829737756494
scalar RSUExampleScenario.node[13].veinsmobility 	maxSpeed 	18.999978809718
scalar RSUExampleScenario.node[13].veinsmobility 	totalDistance 	3409.6020468529
scalar RSUExampleScenario.node[13].veinsmobility 	totalCO2Emission 	709.55711380509
scalar RSUExampleScenario.node[14].veinsmobility 	startTime 	84.1
scalar RSUExampleScenario.node[14].veinsmobility 	totalTime 	227
scalar RSUExampleScenario.node[14].veinsmobility 	stopTime 	311.2
scalar RSUExampleScenario.node[14].veinsmobility 	minSpeed 	0.25904424070707
scalar RSUExampleScenario.node[14].veinsmobility 	maxSpeed 	18.999877310181
scalar RSUExampleScenario.node[14].veinsmobility 	totalDistance 	3409.2872956198
scalar RSUExampleScenario.node[14].veinsmobility 	totalCO2Emission 	702.83183063368
scalar RSUExampleScenario.node[15].veinsmobility 	startTime 	90.1
scalar RSUExampleScenario.node[15].veinsmobility 	totalTime 	226.6
scalar RSUExampleScenario.node[15].veinsmobility 	stopTime 	316.8
scalar RSUExampleScenario.node[15].veinsmobility 	minSpeed 	0.2587212605665
scalar RSUExampleScenario.node[15].veinsmobility 	maxSpeed 	18.999767429833
scalar RSUExampleScenario.node[15].veinsmobility 	totalDistance 	3409.6702724299
scalar RSUExampleScenario.node[15].veinsmobility 	totalCO2Emission 	706.14487336362
scalar RSUExampleScenario.node[16].veinsmobility 	startTime 	96.1
scalar RSUExampleScenario.node[16].veinsmobility 	totalTime 	227
scalar RSUExampleScenario.node[16].veinsmobility 	stopTime 	323.2
scalar RSUExampleScenario.node[16].veinsmobility 	minSpeed 	0.25977229483658
scalar RSUExampleScenario.node[16].veinsmobility 	maxSpeed 	18.999706879458
scalar RSUExampleScenario.node[16].veinsmobility 	totalDistance 	3409.2597139872
scalar RSUExampleScenario.node[16].veinsmobility 	totalCO2Emission 	703.52880817598
scalar RSUExampleScenario.node[17].veinsmobility 	startTime 	102.1
scalar RSUExampleScenario.node[17].veinsmobility 	totalTime 	226.8
scalar RSUExampleScenario.node[17].veinsmobility 	stopTime 	329
scalar RSUExampleScenario.node[17].veinsmobility 	minSpeed 	0.25111928123911
scalar RSUExampleScenario.node[17].veinsmobility 	maxSpeed 	18.999933753251
scalar RSUExampleScenario.node[17].veinsmobility 	totalDistance 	3409.8119226359
scalar RSUExampleScenario.node[17].veinsmobility 	totalCO2Emission 	705.78873535478
scalar RSUExampleScenario.node[18].veinsmobility 	startTime 	108.1
scalar RSUExampleScenario.node[18].veinsmobility 	totalTime 	226.7
scalar RSUExampleScenario.node[18].veinsmobility 	stopTime 	334.9
scalar RSUExampleScenario.node[18].veinsmobility 	minSpeed 	0.24955657820683
scalar RSUExampleScenario.node[18].veinsmobility 	maxSpeed 	18.999632321666
scalar RSUExampleScenario.node[18].veinsmobility 	totalDistance 	3409.2357299719
scalar RSUExampleScenario.node[18].veinsmobility 	totalCO2Emission 	704.52713428786
scalar RSUExampleScenario.node[19].veinsmobility 	startTime 	114.1
scalar RSUExampleScenario.node[19].veinsmobility 	totalTime 	227.3
scalar RSUExampleScenario.node[19].veinsmobility 	stopTime 	341.5
scalar RSUExampleScenario.node[19].veinsmobility 	minSpeed 	0.25950008872407
scalar RSUExampleScenario.node[19].veinsmobility 	maxSpeed 	18.999511408638
scalar RSUExampleScenario.node[19].veinsmobility 	totalDistance 	3409.4484353942
scalar RSUExampleScenario.node[19].veinsmobility 	totalCO2Emission 	710.40309452696
scalar RSUExampleScenario.node[20].veinsmobility 	startTime 	120.1
scalar RSUExampleScenario.node[20].veinsmobility 	totalTime 	226.7
scalar RSUExampleScenario.node[20].veinsmobility 	stopTime 	346.9
scalar RSUExampleScenario.node[20].veinsmobility 	minSpeed 	0.25047922658967
scalar RSUExampleScenario.node[20].veinsmobility 	maxSpeed 	18.999793400702
scalar RSUExampleScenario.node[20].veinsmobility 	totalDistance 	3409.4241266877
scalar RSUExampleScenario.node[20].veinsmobility 	totalCO2Emission 	702.54294009914
scalar RSUExampleScenario.node[21].veinsmobility 	startTime 	126.1
scalar RSUExampleScenario.node[21].veinsmobility 	totalTime 	226.8
scalar RSUExampleScenario.node[21].veinsmobility 	stopTime 	353
scalar RSUExampleScenario.node[21].veinsmobility 	minSpeed 	0.25659129152261
scalar RSUExampleScenario.node[21].veinsmobility 	maxSpeed 	18.999790808037
scalar RSUExampleScenario.node[21].veinsmobility 	totalDistance 	3409.409815842
scalar RSUExampleScenario.node[21].veinsmobility 	totalCO2Emission 	700.09410509033
scalar RSUExampleScenario.node[22].veinsmobility 	startTime 	132.1
scalar RSUExampleScenario.node[22].veinsmobility 	totalTime 	226.8
scalar RSUExampleScenario.node[22].veinsmobility 	stopTime 	359
scalar RSUExampleScenario.node[22].veinsmobility 	minSpeed 	0.25467366643762
scalar RSUExampleScenario.node[22].veinsmobility 	maxSpeed 	18.99978117855
scalar RSUExampleScenario.node[22].veinsmobility 	totalDistance 	3409.2422738887
scalar RSUExampleScenario.node[22].veinsmobility 	totalCO2Emission 	707.3024698508
scalar RSUExampleScenario.node[23].veinsmobility 	startTime 	138.1
scalar RSUExampleScenario.node[23].veinsmobility 	totalTime 	226.7
scalar RSUExampleScenario.node[23].veinsmobility 	stopTime 	364.9
scalar RSUExampleScenario.node[23].veinsmobility 	minSpeed 	0.25524754508352
scalar RSUExampleScenario.node[23].veinsmobility 	maxSpeed 	18.999907009914
scalar RSUExampleScenario.node[23].veinsmobility 	totalDistance 	3409.5269663543
scalar RSUExampleScenario.node[23].veinsmobility 	totalCO2Emission 	707.32884810823
scalar RSUExampleScenario.node[24].veinsmobility 	startTime 	144.1
scalar RSUExampleScenario.node[24].veinsmobility 	totalTime 	227
scalar RSUExampleScenario.node[24].veinsmobility 	stopTime 	371.2
scalar RSUExampleScenario.node[24].veinsmobility 	minSpeed 	0.25292052156222
scalar RSUExampleScenario.node[24].veinsmobility 	maxSpeed 	18.999714504206
scalar RSUExampleScenario.node[24].veinsmobility 	totalDistance 	3409.1500546506
scalar RSUExampleScenario.node[24].veinsmobility 	totalCO2Emission 	706.44425658568
scalar RSUExampleScenario.node[25].veinsmobility 	startTime 	150.1
scalar RSUExampleScenario.node[25].veinsmobility 	totalTime 	227
scalar RSUExampleScenario.node[25].veinsmobility 	stopTime 	377.2
scalar RSUExampleScenario.node[25].veinsmobility 	minSpeed 	0.25511015871773
scalar RSUExampleScenario.node[25].veinsmobility 	maxSpeed 	18.999765230531
scalar RSUExampleScenario.node[25].veinsmobility 	totalDistance 	3409.399934628
scalar RSUExampleScenario.node[25].veinsmobility 	totalCO2Emission 	708.32591299458
scalar RSUExampleScenario.node[26].veinsmobility 	startTime 	156.1
scalar RSUExampleScenario.node[26].veinsmobility 	totalTime 	226.9
scalar RSUExampleScenario.node[26].veinsmobility 	stopTime 	383.1
scalar RSUExampleScenario.node[26].veinsmobility 	minSpeed 	0.2566338842297
scalar RSUExampleScenario.node[26].veinsmobility 	maxSpeed 	18.999807626291
scalar RSUExampleScenario.node[26].veinsmobility 	totalDistance 	3409.4059272474
scalar RSUExampleScenario.node[26].veinsmobility 	totalCO2Emission 	708.84089753695
scalar RSUExampleScenario.node[27].veinsmobility 	startTime 	162.1
scalar RSUExampleScenario.node[27].veinsmobility 	totalTime 	227.1
scalar RSUExampleScenario.node[27].veinsmobility 	stopTime 	389.3
scalar RSUExampleScenario.node[27].veinsmobility 	minSpeed 	0.2506932828296
scalar RSUExampleScenario.node[27].veinsmobility 	maxSpeed 	18.999849497718
scalar RSUExampleScenario.node[27].veinsmobility 	totalDistance 	3409.4632897883
scalar RSUExampleScenario.node[27].veinsmobility 	totalCO2Emission 	702.65637156096
scalar RSUExampleScenario.node[28].veinsmobility 	startTime 	168.1
scalar RSUExampleScenario.node[28].veinsmobility 	totalTime 	227.2
scalar RSUExampleScenario.node[28].veinsmobility 	stopTime 	395.4
scalar RSUExampleScenario.node[28].veinsmobility 	minSpeed 	0.2539797169615
scalar RSUExampleScenario.node[28].veinsmobility 	maxSpeed 	18.999907135405
scalar RSUExampleScenario.node[28].veinsmobility 	totalDistance 	3409.3599013604
scalar RSUExampleScenario.node[28].veinsmobility 	totalCO2Emission 	708.78648373952
scalar RSUExampleScenario.node[29].veinsmobility 	startTime 	174.1
scalar RSUExampleScenario.node[29].veinsmobility 	totalTime 	226.7
scalar RSUExampleScenario.node[29].veinsmobility 	stopTime 	400.9
scalar RSUExampleScenario.node[29].veinsmobility 	minSpeed 	0.24843794246856
scalar RSUExampleScenario.node[29].veinsmobility 	maxSpeed 	18.999897894831
scalar RSUExampleScenario.node[29].veinsmobility 	totalDistance 	3409.4713886772
scalar RSUExampleScenario.node[29].veinsmobility 	totalCO2Emission 	707.57376493897
scalar RSUExampleScenario.node[30].veinsmobility 	startTime 	180.1
scalar RSUExampleScenario.node[30].veinsmobility 	totalTime 	226.8
scalar RSUExampleScenario.node[30].veinsmobility 	stopTime 	407
scalar RSUExampleScenario.node[30].veinsmobility 	minSpeed 	0.25530526724225
scalar RSUExampleScenario.node[30].veinsmobility 	maxSpeed 	18.999563762292
scalar RSUExampleScenario.node[30].veinsmobility 	totalDistance 	3409.2512535159
scalar RSUExampleScenario.node[30].veinsmobility 	totalCO2Emission 	703.13065100975
scalar RSUExampleScenario.node[31].veinsmobility 	startTime 	186.1
scalar RSUExampleScenario.node[31].veinsmobility 	totalTime 	227
scalar RSUExampleScenario.node[31].veinsmobility 	stopTime 	413.2
scalar RSUExampleScenario.node[31].veinsmobility 	minSpeed 	0.25946565094427
scalar RSUExampleScenario.node[31].veinsmobility 	maxSpeed 	18.999809971545
scalar RSUExampleScenario.node[31].veinsmobility 	totalDistance 	3409.0880765883
scalar RSUExampleScenario.node[31].veinsmobility 	totalCO2Emission 	705.37872157324
scalar RSUExampleScenario.node[32].veinsmobility 	startTime 	192.1
scalar RSUExampleScenario.node[32].veinsmobility 	totalTime 	227
scalar RSUExampleScenario.node[32].veinsmobility 	stopTime 	419.2
scalar RSUExampleScenario.node[32].veinsmobility 	minSpeed 	0.25482426921558
scalar RSUExampleScenario.node[32].veinsmobility 	maxSpeed 	18.999896913089
scalar RSUExampleScenario.node[32].veinsmobility 	totalDistance 	3409.3465231011
scalar RSUExampleScenario.node[32].veinsmobility 	totalCO2Emission 	708.45793707113
scalar RSUExampleScenario.node[33].veinsmobility 	startTime 	198.1
scalar RSUExampleScenario.node[33].veinsmobility 	totalTime 	226.9
scalar RSUExampleScenario.node[33].veinsmobility 	stopTime 	425.1
scalar RSUExampleScenario.node[33].veinsmobility 	minSpeed 	0.24798431125446
scalar RSUExampleScenario.node[33].veinsmobility 	maxSpeed 	18.999998232471
scalar RSUExampleScenario.node[33].veinsmobility 	totalDistance 	3409.3766317269
scalar RSUExampleScenario.node[33].veinsmobility 	totalCO2Emission 	708.69859985839
scalar RSUExampleScenario.node[34].veinsmobility 	startTime 	204.1
scalar RSUExampleScenario.node[34].veinsmobility 	totalTime 	226.6
scalar RSUExampleScenario.node[34].veinsmobility 	stopTime 	430.8
scalar RSUExampleScenario.node[34].veinsmobility 	minSpeed 	0.24941919818521
scalar RSUExampleScenario.node[34].veinsmobility 	maxSpeed 	18.999993724327
scalar RSUExampleScenario.node[34].veinsmobility 	totalDistance 	3409.4694297032
scalar RSUExampleScenario.node[34].veinsmobility 	totalCO2Emission 	710.33816219449
scalar RSUExampleScenario.node[35].veinsmobility 	startTime 	210.1
scalar RSUExampleScenario.node[35].veinsmobility 	totalTime 	226.8
scalar RSUExampleScenario.node[35].veinsmobility 	stopTime 	437
scalar RSUExampleScenario.node[35].veinsmobility 	minSpeed 	0.2475211971628
scalar RSUExampleScenario.node[35].veinsmobility 	maxSpeed 	18.9998540091
scalar RSUExampleScenario.node[35].veinsmobility 	totalDistance 	3409.8284242608
scalar RSUExampleScenario.node[35].veinsmobility 	totalCO2Emission 	708.78023658649
scalar RSUExampleScenario.node[36].veinsmobility 	startTime 	216.1
scalar RSUExampleScenario.node[36].veinsmobility 	totalTime 	226.7
scalar RSUExampleScenario.node[36].veinsmobility 	stopTime 	442.9
scalar RSUExampleScenario.node[36].veinsmobility 	minSpeed 	0.24812858972489
scalar RSUExampleScenario.node[36].veinsmobility 	maxSpeed 	18.99945778612
scalar RSUExampleScenario.node[36].veinsmobility 	totalDistance 	3409.4154497321
scalar RSUExampleScenario.node[36].veinsmobility 	totalCO2Emission 	714.08260714706
scalar RSUExampleScenario.node[37].veinsmobility 	startTime 	222.1
scalar RSUExampleScenario.node[37].veinsmobility 	totalTime 	227.1
scalar RSUExampleScenario.node[37].veinsmobility 	stopTime 	449.3
scalar RSUExampleScenario.node[37].veinsmobility 	minSpeed 	0.25685131452652
scalar RSUExampleScenario.node[37].veinsmobility 	maxSpeed 	18.99995903746
scalar RSUExampleScenario.node[37].veinsmobility 	totalDistance 	3409.4616174432
scalar RSUExampleScenario.node[37].veinsmobility 	totalCO2Emission 	707.50725239282
scalar RSUExampleScenario.node[38].veinsmobility 	startTime 	228.1
scalar RSUExampleScenario.node[38].veinsmobility 	totalTime 	227
scalar RSUExampleScenario.node[38].veinsmobility 	stopTime 	455.2
scalar RSUExampleScenario.node[38].veinsmobility 	minSpeed 	0.247099802332
scalar RSUExampleScenario.node[38].veinsmobility 	maxSpeed 	18.999852570947
scalar RSUExampleScenario.node[38].veinsmobility 	totalDistance 	3409.5182428168
scalar RSUExampleScenario.node[38].veinsmobility 	totalCO2Emission 	706.57409258493
scalar RSUExampleScenario.node[39].veinsmobility 	startTime 	234.1
scalar RSUExampleScenario.node[39].veinsmobility 	totalTime 	227
scalar RSUExampleScenario.node[39].veinsmobility 	stopTime 	461.2
scalar RSUExampleScenario.node[39].veinsmobility 	minSpeed 	0.25983970071911
scalar RSUExampleScenario.node[39].veinsmobility 	maxSpeed 	18.999919392243
scalar RSUExampleScenario.node[39].veinsmobility 	totalDistance 	3409.4527504334
scalar RSUExampleScenario.node[39].veinsmobility 	totalCO2Emission 	705.89291678924
scalar RSUExampleScenario.node[40].veinsmobility 	startTime 	240.1
scalar RSUExampleScenario.node[40].veinsmobility 	totalTime 	227
scalar RSUExampleScenario.node[40].veinsmobility 	stopTime 	467.2
scalar RSUExampleScenario.node[40].veinsmobility 	minSpeed 	0.25429544444825
scalar RSUExampleScenario.node[40].veinsmobility 	maxSpeed 	18.999954867046
scalar RSUExampleScenario.node[40].veinsmobility 	totalDistance 	3410.0234639011
scalar RSUExampleScenario.node[40].veinsmobility 	totalCO2Emission 	706.97400244987
scalar RSUExampleScenario.node[41].veinsmobility 	startTime 	246.1
scalar RSUExampleScenario.node[41].veinsmobility 	totalTime 	226.9
scalar RSUExampleScenario.node[41].veinsmobility 	stopTime 	473.1
scalar RSUExampleScenario.node[41].veinsmobility 	minSpeed 	0.25978673297656
scalar RSUExampleScenario.node[41].veinsmobility 	maxSpeed 	18.999554178631
scalar RSUExampleScenario.node[41].veinsmobility 	totalDistance 	3409.5361780016
scalar RSUExampleScenario.node[41].veinsmobility 	totalCO2Emission 	707.00194367038
scalar RSUExampleScenario.node[42].veinsmobility 	startTime 	252.1
scalar RSUExampleScenario.node[42].veinsmobility 	totalTime 	226.9
scalar RSUExampleScenario.node[42].veinsmobility 	stopTime 	479.1
scalar RSUExampleScenario.node[42].veinsmobility 	minSpeed 	0.25392177388887
scalar RSUExampleScenario.node[42].veinsmobility 	maxSpeed 	18.999873989723
scalar RSUExampleScenario.node[42].veinsmobility 	totalDistance 	3409.3646312241
scalar RSUExampleScenario.node[42].veinsmobility 	totalCO2Emission 	708.25758559648
scalar RSUExampleScenario.node[43].veinsmobility 	startTime 	258.1
scalar RSUExampleScenario.node[43].veinsmobility 	totalTime 	226.7
scalar RSUExampleScenario.node[43].veinsmobility 	stopTime 	484.9
scalar RSUExampleScenario.node[43].veinsmobility 	minSpeed 	0.25001172232069
scalar RSUExampleScenario.node[43].veinsmobility 	maxSpeed 	18.999520144705
scalar RSUExampleScenario.node[43].veinsmobility 	totalDistance 	3409.5475465328
scalar RSUExampleScenario.node[43].veinsmobility 	totalCO2Emission 	707.96131223293
scalar RSUExampleScenario.node[44].veinsmobility 	startTime 	264.1
scalar RSUExampleScenario.node[44].veinsmobility 	totalTime 	226.7
scalar RSUExampleScenario.node[44].veinsmobility 	stopTime 	490.9
scalar RSUExampleScenario.node[44].veinsmobility 	minSpeed 	0.25464371818979
scalar RSUExampleScenario.node[44].veinsmobility 	maxSpeed 	18.999712112248
scalar RSUExampleScenario.node[44].veinsmobility 	totalDistance 	3409.8498972916
scalar RSUExampleScenario.node[44].veinsmobility 	totalCO2Emission 	705.69923317028
scalar RSUExampleScenario.node[45].veinsmobility 	startTime 	270.1
scalar RSUExampleScenario.node[45].veinsmobility 	totalTime 	226.8
scalar RSUExampleScenario.node[45].veinsmobility 	stopTime 	497
scalar RSUExampleScenario.node[45].veinsmobility 	minSpeed 	0.25693354150862
scalar RSUExampleScenario.node[45].veinsmobility 	maxSpeed 	18.999941603253
scalar RSUExampleScenario.node[45].veinsmobility 	totalDistance 	3409.4413828596
scalar RSUExampleScenario.node[45].veinsmobility 	totalCO2Emission 	710.21788029834
scalar RSUExampleScenario.node[46].veinsmobility 	startTime 	276.1
scalar RSUExampleScenario.node[46].veinsmobility 	totalTime 	226.8
scalar RSUExampleScenario.node[46].veinsmobility 	stopTime 	503
scalar RSUExampleScenario.node[46].veinsmobility 	minSpeed 	0.24780606846814
scalar RSUExampleScenario.node[46].veinsmobility 	maxSpeed 	18.99962362855
scalar RSUExampleScenario.node[46].veinsmobility 	totalDistance 	3409.130082701
scalar RSUExampleScenario.node[46].veinsmobility 	totalCO2Emission 	706.18485393858
scalar RSUExampleScenario.node[47].veinsmobility 	startTime 	282.1
scalar RSUExampleScenario.node[47].veinsmobility 	totalTime 	227.1
scalar RSUExampleScenario.node[47].veinsmobility 	stopTime 	509.3
scalar RSUExampleScenario.node[47].veinsmobility 	minSpeed 	0.25447102278331
scalar RSUExampleScenario.node[47].veinsmobility 	maxSpeed 	18.999999947213
scalar RSUExampleScenario.node[47].veinsmobility 	totalDistance 	3409.1020508178
scalar RSUExampleScenario.node[47].veinsmobility 	totalCO2Emission 	706.41959234451
scalar RSUExampleScenario.node[48].veinsmobility 	startTime 	288.1
scalar RSUExampleScenario.node[48].veinsmobility 	totalTime 	226.9
scalar RSUExampleScenario.node[48].veinsmobility 	stopTime 	515.1
scalar RSUExampleScenario.node[48].veinsmobility 	minSpeed 	0.25578753650002
scalar RSUExampleScenario.node[48].veinsmobility 	maxSpeed 	18.999932807316
scalar RSUExampleScenario.node[48].veinsmobility 	totalDistance 	3409.4861142377
scalar RSUExampleScenario.node[48].veinsmobility 	totalCO2Emission 	703.15572834878
scalar RSUExampleScenario.node[49].veinsmobility 	startTime 	294.1
scalar RSUExampleScenario.node[49].veinsmobility 	totalTime 	227
scalar RSUExampleScenario.node[49].veinsmobility 	stopTime 	521.2
scalar RSUExampleScenario.node[49].veinsmobility 	minSpeed 	0.25648517003166
scalar RSUExampleScenario.node[49].veinsmobility 	maxSpeed 	18.999944371714
scalar RSUExampleScenario.node[49].veinsmobility 	totalDistance 	3409.7653666541
scalar RSUExampleScenario.node[49].veinsmobility 	totalCO2Emission 	704.40931994142
scalar RSUExampleScenario.node[50].veinsmobility 	startTime 	300.1
scalar RSUExampleScenario.node[50].veinsmobility 	totalTime 	226.8
scalar RSUExampleScenario.node[50].veinsmobility 	stopTime 	527
scalar RSUExampleScenario.node[50].veinsmobility 	minSpeed 	0.24954273711797
scalar RSUExampleScenario.node[50].veinsmobility 	maxSpeed 	18.999900776797
scalar RSUExampleScenario.node[50].veinsmobility 	totalDistance 	3409.2218230476
scalar RSUExampleScenario.node[50].veinsmobility 	totalCO2Emission 	706.9093044359
scalar RSUExampleScenario.node[51].veinsmobility 	startTime 	306.1
scalar RSUExampleScenario.node[51].veinsmobility 	totalTime 	226.8
scalar RSUExampleScenario.node[51].veinsmobility 	stopTime 	533
scalar RSUExampleScenario.node[51].veinsmobility 	minSpeed 	0.25695040043048
scalar RSUExampleScenario.node[51].veinsmobility 	maxSpeed 	18.999654330849
scalar RSUExampleScenario.node[51].veinsmobility 	totalDistance 	3409.3457992323
scalar RSUExampleScenario.node[51].veinsmobility 	totalCO2Emission 	706.76956069602
scalar RSUExampleScenario.node[52].veinsmobility 	startTime 	312.1
scalar RSUExampleScenario.node[52].veinsmobility 	totalTime 	226.9
scalar RSUExampleScenario.node[52].veinsmobility 	stopTime 	539.1
scalar RSUExampleScenario.node[52].veinsmobility 	minSpeed 	0.24754994554236
scalar RSUExampleScenario.node[52].veinsmobility 	maxSpeed 	18.999944946109
scalar RSUExampleScenario.node[52].veinsmobility 	totalDistance 	3409.4933730278
scalar RSUExampleScenario.node[52].veinsmobility 	totalCO2Emission 	705.88213604803
scalar RSUExampleScenario.node[53].veinsmobility 	startTime 	318.1
scalar RSUExampleScenario.node[53].veinsmobility 	totalTime 	226.6
scalar RSUExampleScenario.node[53].veinsmobility 	stopTime 	544.8
scalar RSUExampleScenario.node[53].veinsmobility 	minSpeed 	0.25156815889361
scalar RSUExampleScenario.node[53].veinsmobility 	maxSpeed 	18.999939596243
scalar RSUExampleScenario.node[53].veinsmobility 	totalDistance 	3409.1673026537
scalar RSUExampleScenario.node[53].veinsmobility 	totalCO2Emission 	705.55194220911
scalar RSUExampleScenario.node[54].veinsmobility 	startTime 	324.1
scalar RSUExampleScenario.node[54].veinsmobility 	totalTime 	226.9
scalar RSUExampleScenario.node[54].veinsmobility 	stopTime 	551.1
scalar RSUExampleScenario.node[54].veinsmobility 	minSpeed 	0.25588018665882
scalar RSUExampleScenario.node[54].veinsmobility 	maxSpeed 	18.99995913117
scalar RSUExampleScenario.node[54].veinsmobility 	totalDistance 	3409.3109512656
scalar RSUExampleScenario.node[54].veinsmobility 	totalCO2Emission 	706.27349637456
scalar RSUExampleScenario.node[55].veinsmobility 	startTime 	330.1
scalar RSUExampleScenario.node[55].veinsmobility 	totalTime 	227.1
scalar RSUExampleScenario.node[55].veinsmobility 	stopTime 	557.3
scalar RSUExampleScenario.node[55].veinsmobility 	minSpeed 	0.25922995324433
scalar RSUExampleScenario.node[55].veinsmobility 	maxSpeed 	18.999944548751
scalar RSUExampleScenario.node[55].veinsmobility 	totalDistance 	3409.6029087766
scalar RSUExampleScenario.node[55].veinsmobility 	totalCO2Emission 	705.41399902555
scalar RSUExampleScenario.node[56].veinsmobility 	startTime 	336.1
scalar RSUExampleScenario.node[56].veinsmobility 	totalTime 	226.9
scalar RSUExampleScenario.node[56].veinsmobility 	stopTime 	563.1
scalar RSUExampleScenario.node[56].veinsmobility 	minSpeed 	0.25910880742851
scalar RSUExampleScenario.node[56].veinsmobility 	maxSpeed 	18.999874007914
scalar RSUExampleScenario.node[56].veinsmobility 	totalDistance 	3409.8656383723
scalar RSUExampleScenario.node[56].veinsmobility 	totalCO2Emission 	706.01534010423
scalar RSUExampleScenario.node[57].veinsmobility 	startTime 	342.1
scalar RSUExampleScenario.node[57].veinsmobility 	totalTime 	227.1
scalar RSUExampleScenario.node[57].veinsmobility 	stopTime 	569.3
scalar RSUExampleScenario.node[57].veinsmobility 	minSpeed 	0.25207306306413
scalar RSUExampleScenario.node[57].veinsmobility 	maxSpeed 	18.999954468023
scalar RSUExampleScenario.node[57].veinsmobility 	totalDistance 	3409.5984738078
scalar RSUExampleScenario.node[57].veinsmobility 	totalCO2Emission 	710.67051350672
scalar RSUExampleScenario.node[58].veinsmobility 	startTime 	348.1
scalar RSUExampleScenario.node[58].veinsmobility 	totalTime 	226.8
scalar RSUExampleScenario.node[58].veinsmobility 	stopTime 	575
scalar RSUExampleScenario.node[58].veinsmobility 	minSpeed 	0.2592411858323
scalar RSUExampleScenario.node[58].veinsmobility 	maxSpeed 	18.999859522989
scalar RSUExampleScenario.node[58].veinsmobility 	totalDistance 	3409.7101773826
scalar RSUExampleScenario.node[58].veinsmobility 	totalCO2Emission 	708.76547435787
scalar RSUExampleScenario.node[59].veinsmobility 	startTime 	354.1
scalar RSUExampleScenario.node[59].veinsmobility 	totalTime 	226.5
scalar RSUExampleScenario.node[59].veinsmobility 	stopTime 	580.7
scalar RSUExampleScenario.node[59].veinsmobility 	minSpeed 	0.24932210506476
scalar RSUExampleScenario.node[59].veinsmobility 	maxSpeed 	18.999867003085
scalar RSUExampleScenario.node[59].veinsmobility 	totalDistance 	3409.4760177548
scalar RSUExampleScenario.node[59].veinsmobility 	totalCO2Emission 	704.7141559954
scalar RSUExampleScenario.node[60].veinsmobility 	startTime 	360.1
scalar RSUExampleScenario.node[60].veinsmobility 	totalTime 	226.7
scalar RSUExampleScenario.node[60].veinsmobility 	stopTime 	586.9
scalar RSUExampleScenario.node[60].veinsmobility 	minSpeed 	0.24983545347
scalar RSUExampleScenario.node[60].veinsmobility 	maxSpeed 	18.999928401569
scalar RSUExampleScenario.node[60].veinsmobility 	totalDistance 	3409.5147188895
scalar RSUExampleScenario.node[60].veinsmobility 	totalCO2Emission 	709.78596214477
scalar RSUExampleScenario.node[61].veinsmobility 	startTime 	366.1
scalar RSUExampleScenario.node[61].veinsmobility 	totalTime 	226.7
scalar RSUExampleScenario.node[61].veinsmobility 	stopTime 	592.9
scalar RSUExampleScenario.node[61].veinsmobility 	minSpeed 	0.24850924668275
scalar RSUExampleScenario.node[61].veinsmobility 	maxSpeed 	18.99999512855
scalar RSUExampleScenario.node[61].veinsmobility 	totalDistance 	3409.2857195561
scalar RSUExampleScenario.node[61].veinsmobility 	totalCO2Emission 	704.55567929496
scalar RSUExampleScenario.node[62].veinsmobility 	startTime 	372.1
scalar RSUExampleScenario.node[62].veinsmobility 	totalTime 	226.8
scalar RSUExampleScenario.node[62].veinsmobility 	stopTime 	599
scalar RSUExampleScenario.node[62].veinsmobility 	minSpeed 	0.2485508778668
scalar RSUExampleScenario.node[62].veinsmobility 	maxSpeed 	18.999282853096
scalar RSUExampleScenario.node[62].veinsmobility 	totalDistance 	3409.9255793125
scalar RSUExampleScenario.node[62].veinsmobility 	totalCO2Emission 	704.81848996387
scalar RSUExampleScenario.node[63].veinsmobility 	startTime 	378.1
scalar RSUExampleScenario.node[63].veinsmobility 	totalTime 	227
scalar RSUExampleScenario.node[63].veinsmobility 	stopTime 	605.2
scalar RSUExampleScenario.node[63].veinsmobility 	minSpeed 	0.25390189399826
scalar RSUExampleScenario.node[63].veinsmobility 	maxSpeed 	18.999891862059
scalar RSUExampleScenario.node[63].veinsmobility 	totalDistance 	3409.9133468038
scalar RSUExampleScenario.node[63].veinsmobility 	totalCO2Emission 	708.94951037466
scalar RSUExampleScenario.node[64].veinsmobility 	startTime 	384.1
scalar RSUExampleScenario.node[64].veinsmobility 	totalTime 	227
scalar RSUExampleScenario.node[64].veinsmobility 	stopTime 	611.2
scalar RSUExampleScenario.node[64].veinsmobility 	minSpeed 	0.24827628171258
scalar RSUExampleScenario.node[64].veinsmobility 	maxSpeed 	18.999781689867
scalar RSUExampleScenario.node[64].veinsmobility 	totalDistance 	3409.9261972076
scalar RSUExampleScenario.node[64].veinsmobility 	totalCO2Emission 	709.46615634288
scalar RSUExampleScenario.node[65].veinsmobility 	startTime 	390.1
scalar RSUExampleScenario.node[65].veinsmobility 	totalTime 	227
scalar RSUExampleScenario.node[65].veinsmobility 	stopTime 	617.2
scalar RSUExampleScenario.node[65].veinsmobility 	minSpeed 	0.25057832467649
scalar RSUExampleScenario.node[65].veinsmobility 	maxSpeed 	18.999925667916
scalar RSUExampleScenario.node[65].veinsmobility 	totalDistance 	3409.4759692695
scalar RSUExampleScenario.node[65].veinsmobility 	totalCO2Emission 	708.30515553647
scalar RSUExampleScenario.node[66].veinsmobility 	startTime 	396.1
scalar RSUExampleScenario.node[66].veinsmobility 	totalTime 	226.9
scalar RSUExampleScenario.node[66].veinsmobility 	stopTime 	623.1
scalar RSUExampleScenario.node[66].veinsmobility 	minSpeed 	0.25510031019687
scalar RSUExampleScenario.node[66].veinsmobility 	maxSpeed 	18.999862806066
scalar RSUExampleScenario.node[66].veinsmobility 	totalDistance 	3409.5033362678
scalar RSUExampleScenario.node[66].veinsmobility 	totalCO2Emission 	707.11138568569
scalar RSUExampleScenario.node[67].veinsmobility 	startTime 	402.1
scalar RSUExampleScenario.node[67].veinsmobility 	totalTime 	226.8
scalar RSUExampleScenario.node[67].veinsmobility 	stopTime 	629
scalar RSUExampleScenario.node[67].veinsmobility 	minSpeed 	0.25231347284745
scalar RSUExampleScenario.node[67].veinsmobility 	maxSpeed 	18.999863279851
scalar RSUExampleScenario.node[67].veinsmobility 	totalDistance 	3409.4201532047
scalar RSUExampleScenario.node[67].veinsmobility 	totalCO2Emission 	703.84700804182
scalar RSUExampleScenario.node[68].veinsmobility 	startTime 	408.1
scalar RSUExampleScenario.node[68].veinsmobility 	totalTime 	226.9
scalar RSUExampleScenario.node[68].veinsmobility 	stopTime 	635.1
scalar RSUExampleScenario.node[68].veinsmobility 	minSpeed 	0.25315819255612
scalar RSUExampleScenario.node[68].veinsmobility 	maxSpeed 	18.999611078172
scalar RSUExampleScenario.node[68].veinsmobility 	totalDistance 	3409.3170285278
scalar RSUExampleScenario.node[68].veinsmobility 	totalCO2Emission 	704.41004427023
scalar RSUExampleScenario.node[69].veinsmobility 	startTime 	414.1
scalar RSUExampleScenario.node[69].veinsmobility 	totalTime 	226.8
scalar RSUExampleScenario.node[69].veinsmobility 	stopTime 	641
scalar RSUExampleScenario.node[69].veinsmobility 	minSpeed 	0.25926472031255
scalar RSUExampleScenario.node[69].veinsmobility 	maxSpeed 	18.999765009454
scalar RSUExampleScenario.node[69].veinsmobility 	totalDistance 	3409.3106226669
scalar RSUExampleScenario.node[69].veinsmobility 	totalCO2Emission 	706.93506746612
scalar RSUExampleScenario.node[70].veinsmobility 	startTime 	420.1
scalar RSUExampleScenario.node[70].veinsmobility 	totalTime 	226.7
scalar RSUExampleScenario.node[70].veinsmobility 	stopTime 	646.9
scalar RSUExampleScenario.node[70].veinsmobility 	minSpeed 	0.24856067578564
scalar RSUExampleScenario.node[70].veinsmobility 	maxSpeed 	18.999933939006
scalar RSUExampleScenario.node[70].veinsmobility 	totalDistance 	3409.4410365249
scalar RSUExampleScenario.node[70].veinsmobility 	totalCO2Emission 	706.0179726389
scalar RSUExampleScenario.node[71].veinsmobility 	startTime 	426.1
scalar RSUExampleScenario.node[71].veinsmobility 	totalTime 	226.9
scalar RSUExampleScenario.node[71].veinsmobility 	stopTime 	653.1
scalar RSUExampleScenario.node[71].veinsmobility 	minSpeed 	0.25401389003568
scalar RSUExampleScenario.node[71].veinsmobility 	maxSpeed 	18.999895241389
scalar RSUExampleScenario.node[71].veinsmobility 	totalDistance 	3409.5895980697
scalar RSUExampleScenario.node[71].veinsmobility 	totalCO2Emission 	704.89067561629
scalar RSUExampleScenario.node[72].veinsmobility 	startTime 	432.1
scalar RSUExampleScenario.node[72].veinsmobility 	totalTime 	226.8
scalar RSUExampleScenario.node[72].veinsmobility 	stopTime 	659
scalar RSUExampleScenario.node[72].veinsmobility 	minSpeed 	0.25541454246943
scalar RSUExampleScenario.node[72].veinsmobility 	maxSpeed 	18.999996469512
scalar RSUExampleScenario.node[72].veinsmobility 	totalDistance 	3409.7198239536
scalar RSUExampleScenario.node[72].veinsmobility 	totalCO2Emission 	708.78899292989
scalar RSUExampleScenario.node[73].veinsmobility 	startTime 	438.1
scalar RSUExampleScenario.node[73].veinsmobility 	totalTime 	227.1
scalar RSUExampleScenario.node[73].veinsmobility 	stopTime 	665.3
scalar RSUExampleScenario.node[73].veinsmobility 	minSpeed 	0.25011858285288
scalar RSUExampleScenario.node[73].veinsmobility 	maxSpeed 	18.999928081182
scalar RSUExampleScenario.node[73].veinsmobility 	totalDistance 	3409.2203572694
scalar RSUExampleScenario.node[73].veinsmobility 	totalCO2Emission 	705.76448916507
scalar RSUExampleScenario.node[74].veinsmobility 	startTime 	444.1
scalar RSUExampleScenario.node[74].veinsmobility 	totalTime 	226.7
scalar RSUExampleScenario.node[74].veinsmobility 	stopTime 	670.9
scalar RSUExampleScenario.node[74].veinsmobility 	minSpeed 	0.25594587233616
scalar RSUExampleScenario.node[74].veinsmobility 	maxSpeed 	18.999668883574
scalar RSUExampleScenario.node[74].veinsmobility 	totalDistance 	3409.2070641578
scalar RSUExampleScenario.node[74].veinsmobility 	totalCO2Emission 	704.21597317377
scalar RSUExampleScenario.node[75].veinsmobility 	startTime 	450.1
scalar RSUExampleScenario.node[75].veinsmobility 	totalTime 	226.8
scalar RSUExampleScenario.node[75].veinsmobility 	stopTime 	677
scalar RSUExampleScenario.node[75].veinsmobility 	minSpeed 	0.24863308197539
scalar RSUExampleScenario.node[75].veinsmobility 	maxSpeed 	18.999952839939
scalar RSUExampleScenario.node[75].veinsmobility 	totalDistance 	3409.4097124168
scalar RSUExampleScenario.node[75].veinsmobility 	totalCO2Emission 	709.17584063041
scalar RSUExampleScenario.node[76].veinsmobility 	startTime 	456.1
scalar RSUExampleScenario.node[76].veinsmobility 	totalTime 	226.9
scalar RSUExampleScenario.node[76].veinsmobility 	stopTime 	683.1
scalar RSUExampleScenario.node[76].veinsmobility 	minSpeed 	0.25293311260454
scalar RSUExampleScenario.node[76].veinsmobility 	maxSpeed 	18.999901443783
scalar RSUExampleScenario.node[76].veinsmobility 	totalDistance 	3409.3509493954
scalar RSUExampleScenario.node[76].veinsmobility 	totalCO2Emission 	707.7043497918
scalar RSUExampleScenario.node[77].veinsmobility 	startTime 	462.1
scalar RSUExampleScenario.node[77].veinsmobility 	totalTime 	226.9
scalar RSUExampleScenario.node[77].veinsmobility 	stopTime 	689.1
scalar RSUExampleScenario.node[77].veinsmobility 	minSpeed 	0.25071272926452
scalar RSUExampleScenario.node[77].veinsmobility 	maxSpeed 	18.999829987793
scalar RSUExampleScenario.node[77].veinsmobility 	totalDistance 	3409.5011290019
scalar RSUExampleScenario.node[77].veinsmobility 	totalCO2Emission 	706.33193038887
scalar RSUExampleScenario.node[78].veinsmobility 	startTime 	468.1
scalar RSUExampleScenario.node[78].veinsmobility 	totalTime 	226.7
scalar RSUExampleScenario.node[78].veinsmobility 	stopTime 	694.9
scalar RSUExampleScenario.node[78].veinsmobility 	minSpeed 	0.24760194335948
scalar RSUExampleScenario.node[78].veinsmobility 	maxSpeed 	18.999959584402
scalar RSUExampleScenario.node[78].veinsmobility 	totalDistance 	3409.4549621995
scalar RSUExampleScenario.node[78].veinsmobility 	totalCO2Emission 	705.58086048597
scalar RSUExampleScenario.node[79].veinsmobility 	startTime 	474.1
scalar RSUExampleScenario.node[79].veinsmobility 	totalTime 	226.9
scalar RSUExampleScenario.node[79].veinsmobility 	stopTime 	701.1
scalar RSUExampleScenario.node[79].veinsmobility 	minSpeed 	0.25670090576331
scalar RSUExampleScenario.node[79].veinsmobility 	maxSpeed 	18.999914402596
scalar RSUExampleScenario.node[79].veinsmobility 	totalDistance 	3409.5275123572
scalar RSUExampleScenario.node[79].veinsmobility 	totalCO2Emission 	707.98174156455
scalar RSUExampleScenario.node[80].veinsmobility 	startTime 	480.1
scalar RSUExampleScenario.node[80].veinsmobility 	totalTime 	227
scalar RSUExampleScenario.node[80].veinsmobility 	stopTime 	707.2
scalar RSUExampleScenario.node[80].veinsmobility 	minSpeed 	0.25799836295121
scalar RSUExampleScenario.node[80].veinsmobility 	maxSpeed 	18.999916896981
scalar RSUExampleScenario.node[80].veinsmobility 	totalDistance 	3409.4844035609
scalar RSUExampleScenario.node[80].veinsmobility 	totalCO2Emission 	710.5708601755
scalar RSUExampleScenario.node[81].veinsmobility 	startTime 	486.1
scalar RSUExampleScenario.node[81].veinsmobility 	totalTime 	226.9
scalar RSUExampleScenario.node[81].veinsmobility 	stopTime 	713.1
scalar RSUExampleScenario.node[81].veinsmobility 	minSpeed 	0.25054932034481
scalar RSUExampleScenario.node[81].veinsmobility 	maxSpeed 	18.999929784543
scalar RSUExampleScenario.node[81].veinsmobility 	totalDistance 	3409.5548930709
scalar RSUExampleScenario.node[81].veinsmobility 	totalCO2Emission 	707.64154718225
scalar RSUExampleScenario.node[82].veinsmobility 	startTime 	492.1
scalar RSUExampleScenario.node[82].veinsmobility 	totalTime 	226.7
scalar RSUExampleScenario.node[82].veinsmobility 	stopTime 	718.9
scalar RSUExampleScenario.node[82].veinsmobility 	minSpeed 	0.25806001997809
scalar RSUExampleScenario.node[82].veinsmobility 	maxSpeed 	18.999998467744
scalar RSUExampleScenario.node[82].veinsmobility 	totalDistance 	3409.2613207439
scalar RSUExampleScenario.node[82].veinsmobility 	totalCO2Emission 	709.99577933606
scalar RSUExampleScenario.node[83].veinsmobility 	startTime 	498.1
scalar RSUExampleScenario.node[83].veinsmobility 	totalTime 	226.8
scalar RSUExampleScenario.node[83].veinsmobility 	stopTime 	725
scalar RSUExampleScenario.node[83].veinsmobility 	minSpeed 	0.25263577025128
scalar RSUExampleScenario.node[83].veinsmobility 	maxSpeed 	18.999827357535
scalar RSUExampleScenario.node[83].veinsmobility 	totalDistance 	3409.1842271862
scalar RSUExampleScenario.node[83].veinsmobility 	totalCO2Emission 	707.12007865273
scalar RSUExampleScenario.node[84].veinsmobility 	startTime 	504.1
scalar RSUExampleScenario.node[84].veinsmobility 	totalTime 	226.9
scalar RSUExampleScenario.node[84].veinsmobility 	stopTime 	731.1
scalar RSUExampleScenario.node[84].veinsmobility 	minSpeed 	0.24793337869784
scalar RSUExampleScenario.node[84].veinsmobility 	maxSpeed 	18.999781170075
scalar RSUExampleScenario.node[84].veinsmobility 	totalDistance 	3409.575730053
scalar RSUExampleScenario.node[84].veinsmobility 	totalCO2Emission 	709.09836235571
scalar RSUExampleScenario.node[85].veinsmobility 	startTime 	510.1
scalar RSUExampleScenario.node[85].veinsmobility 	totalTime 	227.1
scalar RSUExampleScenario.node[85].veinsmobility 	stopTime 	737.3
scalar RSUExampleScenario.node[85].veinsmobility 	minSpeed 	0.25319105852558
scalar RSUExampleScenario.node[85].veinsmobility 	maxSpeed 	18.999925917475
scalar RSUExampleScenario.node[85].veinsmobility 	totalDistance 	3410.027475009
scalar RSUExampleScenario.node[85].veinsmobility 	totalCO2Emission 	711.45707410925
scalar RSUExampleScenario.node[86].veinsmobility 	startTime 	516.1
scalar RSUExampleScenario.node[86].veinsmobility 	totalTime 	227
scalar RSUExampleScenario.node[86].veinsmobility 	stopTime 	743.2
scalar RSUExampleScenario.node[86].veinsmobility 	minSpeed 	0.25423853954324
scalar RSUExampleScenario.node[86].veinsmobility 	maxSpeed 	18.9999534387
scalar RSUExampleScenario.node[86].veinsmobility 	totalDistance 	3409.0471860722
scalar RSUExampleScenario.node[86].veinsmobility 	totalCO2Emission 	703.62519190818
scalar RSUExampleScenario.node[87].veinsmobility 	startTime 	522.1
scalar RSUExampleScenario.node[87].veinsmobility 	totalTime 	226.5
scalar RSUExampleScenario.node[87].veinsmobility 	stopTime 	748.7
scalar RSUExampleScenario.node[87].veinsmobility 	minSpeed 	0.25268948600651
scalar RSUExampleScenario.node[87].veinsmobility 	maxSpeed 	18.999754376463
scalar RSUExampleScenario.node[87].veinsmobility 	totalDistance 	3409.1309949692
scalar RSUExampleScenario.node[87].veinsmobility 	totalCO2Emission 	706.12050539141
scalar RSUExampleScenario.node[88].veinsmobility 	startTime 	528.1
scalar RSUExampleScenario.node[88].veinsmobility 	totalTime 	227
scalar RSUExampleScenario.node[88].veinsmobility 	stopTime 	755.2
scalar RSUExampleScenario.node[88].veinsmobility 	minSpeed 	0.25347383422707
scalar RSUExampleScenario.node[88].veinsmobility 	maxSpeed 	18.99998588392
scalar RSUExampleScenario.node[88].veinsmobility 	totalDistance 	3409.3714284255
scalar RSUExampleScenario.node[88].veinsmobility 	totalCO2Emission 	711.20678528625
scalar RSUExampleScenario.node[89].veinsmobility 	startTime 	534.1
scalar RSUExampleScenario.node[89].veinsmobility 	totalTime 	226.7
scalar RSUExampleScenario.node[89].veinsmobility 	stopTime 	760.9
scalar RSUExampleScenario.node[89].veinsmobility 	minSpeed 	0.25582836395712
scalar RSUExampleScenario.node[89].veinsmobility 	maxSpeed 	18.99962670868
scalar RSUExampleScenario.node[89].veinsmobility 	totalDistance 	3409.1783743631
scalar RSUExampleScenario.node[89].veinsmobility 	totalCO2Emission 	707.72948225164
scalar RSUExampleScenario.node[90].veinsmobility 	startTime 	540.1
scalar RSUExampleScenario.node[90].veinsmobility 	totalTime 	227.1
scalar RSUExampleScenario.node[90].veinsmobility 	stopTime 	767.3
scalar RSUExampleScenario.node[90].veinsmobility 	minSpeed 	0.25985836676974
scalar RSUExampleScenario.node[90].veinsmobility 	maxSpeed 	18.999914900747
scalar RSUExampleScenario.node[90].veinsmobility 	totalDistance 	3409.3485578128
scalar RSUExampleScenario.node[90].veinsmobility 	totalCO2Emission 	709.33268016625
scalar RSUExampleScenario.node[91].veinsmobility 	startTime 	546.1
scalar RSUExampleScenario.node[91].veinsmobility 	totalTime 	226.9
scalar RSUExampleScenario.node[91].veinsmobility 	stopTime 	773.1
scalar RSUExampleScenario.node[91].veinsmobility 	minSpeed 	0.25742441802449
scalar RSUExampleScenario.node[91].veinsmobility 	maxSpeed 	18.999849478467
scalar RSUExampleScenario.node[91].veinsmobility 	totalDistance 	3409.1422348484
scalar RSUExampleScenario.node[91].veinsmobility 	totalCO2Emission 	705.93313109715
scalar RSUExampleScenario.node[92].veinsmobility 	startTime 	552.1
scalar RSUExampleScenario.node[92].veinsmobility 	totalTime 	227
scalar RSUExampleScenario.node[92].veinsmobility 	stopTime 	779.2
scalar RSUExampleScenario.node[92].veinsmobility 	minSpeed 	0.24908152829902
scalar RSUExampleScenario.node[92].veinsmobility 	maxSpeed 	18.999941596896
scalar RSUExampleScenario.node[92].veinsmobility 	totalDistance 	3409.5552158756
scalar RSUExampleScenario.node[92].veinsmobility 	totalCO2Emission 	708.90237714346
scalar RSUExampleScenario.node[93].veinsmobility 	startTime 	558.1
scalar RSUExampleScenario.node[93].veinsmobility 	totalTime 	226.8
scalar RSUExampleScenario.node[93].veinsmobility 	stopTime 	785
scalar RSUExampleScenario.node[93].veinsmobility 	minSpeed 	0.25098058935162
scalar RSUExampleScenario.node[93].veinsmobility 	maxSpeed 	18.999954662314
scalar RSUExampleScenario.node[93].veinsmobility 	totalDistance 	3409.6002638237
scalar RSUExampleScenario.node[93].veinsmobility 	totalCO2Emission 	706.55989275171
scalar RSUExampleScenario.node[94].veinsmobility 	startTime 	564.1
scalar RSUExampleScenario.node[94].veinsmobility 	totalTime 	226.7
scalar RSUExampleScenario.node[94].veinsmobility 	stopTime 	790.9
scalar RSUExampleScenario.node[94].veinsmobility 	minSpeed 	0.25181685176794
scalar RSUExampleScenario.node[94].veinsmobility 	maxSpeed 	18.999843459497
scalar RSUExampleScenario.node[94].veinsmobility 	totalDistance 	3409.954943495
scalar RSUExampleScenario.node[94].veinsmobility 	totalCO2Emission 	706.85019500356
scalar RSUExampleScenario.node[95].veinsmobility 	startTime 	570.1
scalar RSUExampleScenario.node[95].veinsmobility 	totalTime 	226.6
scalar RSUExampleScenario.node[95].veinsmobility 	stopTime 	796.8
scalar RSUExampleScenario.node[95].veinsmobility 	minSpeed 	0.25629794598999
scalar RSUExampleScenario.node[95].veinsmobility 	maxSpeed 	18.999747100766
scalar RSUExampleScenario.node[95].veinsmobility 	totalDistance 	3409.2125866607
scalar RSUExampleScenario.node[95].veinsmobility 	totalCO2Emission 	707.95637741131
scalar RSUExampleScenario.node[96].veinsmobility 	startTime 	576.1
scalar RSUExampleScenario.node[96].veinsmobility 	totalTime 	226.9
scalar RSUExampleScenario.node[96].veinsmobility 	stopTime 	803.1
scalar RSUExampleScenario.node[96].veinsmobility 	minSpeed 	0.25824426575005
scalar RSUExampleScenario.node[96].veinsmobility 	maxSpeed 	18.999789666843
scalar RSUExampleScenario.node[96].veinsmobility 	totalDistance 	3409.5624344814
scalar RSUExampleScenario.node[96].veinsmobility 	totalCO2Emission 	712.19257341194
scalar RSUExampleScenario.node[97].veinsmobility 	startTime 	582.1
scalar RSUExampleScenario.node[97].veinsmobility 	totalTime 	227.1
scalar RSUExampleScenario.node[97].veinsmobility 	stopTime 	809.3
scalar RSUExampleScenario.node[97].veinsmobility 	minSpeed 	0.25198324031034
scalar RSUExampleScenario.node[97].veinsmobility 	maxSpeed 	18.999874525375
scalar RSUExampleScenario.node[97].veinsmobility 	totalDistance 	3409.4312101504
scalar RSUExampleScenario.node[97].veinsmobility 	totalCO2Emission 	710.70734770444
scalar RSUExampleScenario.node[98].veinsmobility 	startTime 	588.1
scalar RSUExampleScenario.node[98].veinsmobility 	totalTime 	226.9
scalar RSUExampleScenario.node[98].veinsmobility 	stopTime 	815.1
scalar RSUExampleScenario.node[98].veinsmobility 	minSpeed 	0.25940513363411
scalar RSUExampleScenario.node[98].veinsmobility 	maxSpeed 	18.9994695495
scalar RSUExampleScenario.node[98].veinsmobility 	totalDistance 	3409.352990569
scalar RSUExampleScenario.node[98].veinsmobility 	totalCO2Emission 	708.01966750895
scalar RSUExampleScenario.node[99].veinsmobility 	startTime 	594.1
scalar RSUExampleScenario.node[99].veinsmobility 	totalTime 	227.1
scalar RSUExampleScenario.node[99].veinsmobility 	stopTime 	821.3
scalar RSUExampleScenario.node[99].veinsmobility 	minSpeed 	0.24762852879195
scalar RSUExampleScenario.node[99].veinsmobility 	maxSpeed 	18.99977103363
scalar RSUExampleScenario.node[99].veinsmobility 	totalDistance 	3409.3637993678
scalar RSUExampleScenario.node[99].veinsmobility 	totalCO2Emission 	701.69295301535
scalar RSUExampleScenario.node[100].veinsmobility 	startTime 	600.1
scalar RSUExampleScenario.node[100].veinsmobility 	totalTime 	226.7
scalar RSUExampleScenario.node[100].veinsmobility 	stopTime 	826.9
scalar RSUExampleScenario.node[100].veinsmobility 	minSpeed 	0.25494309780537
scalar RSUExampleScenario.node[100].veinsmobility 	maxSpeed 	18.999932733735
scalar RSUExampleScenario.node[100].veinsmobility 	totalDistance 	3409.5779377271
scalar RSUExampleScenario.node[100].veinsmobility 	totalCO2Emission 	710.22464673415
scalar RSUExampleScenario.node[101].veinsmobility 	startTime 	606.1
scalar RSUExampleScenario.node[101].veinsmobility 	totalTime 	227
scalar RSUExampleScenario.node[101].veinsmobility 	stopTime 	833.2
scalar RSUExampleScenario.node[101].veinsmobility 	minSpeed 	0.25854143275181
scalar RSUExampleScenario.node[101].veinsmobility 	maxSpeed 	18.99974858423
scalar RSUExampleScenario.node[101].veinsmobility 	totalDistance 	3409.9806895398
scalar RSUExampleScenario.node[101].veinsmobility 	totalCO2Emission 	710.31570056516
scalar RSUExampleScenario.node[102].veinsmobility 	startTime 	612.1
scalar RSUExampleScenario.node[102].veinsmobility 	totalTime 	226.9
scalar RSUExampleScenario.node[102].veinsmobility 	stopTime 	839.1
scalar RSUExampleScenario.node[102].veinsmobility 	minSpeed 	0.25916566345072
scalar RSUExampleScenario.node[102].veinsmobility 	maxSpeed 	18.999903396522
scalar RSUExampleScenario.node[102].veinsmobility 	totalDistance 	3409.1726792785
scalar RSUExampleScenario.node[102].veinsmobility 	totalCO2Emission 	702.67969985398
scalar RSUExampleScenario.node[103].veinsmobility 	startTime 	618.1
scalar RSUExampleScenario.node[103].veinsmobility 	totalTime 	226.7
scalar RSUExampleScenario.node[103].veinsmobility 	stopTime 	844.9
scalar RSUExampleScenario.node[103].veinsmobility 	minSpeed 	0.25017816044507
scalar RSUExampleScenario.node[103].veinsmobility 	maxSpeed 	18.999954562702
scalar RSUExampleScenario.node[103].veinsmobility 	totalDistance 	3409.6549130753
scalar RSUExampleScenario.node[103].veinsmobility 	totalCO2Emission 	706.90553242287
scalar RSUExampleScenario.node[104].veinsmobility 	startTime 	624.1
scalar RSUExampleScenario.node[104].veinsmobility 	totalTime 	226.9
scalar RSUExampleScenario.node[104].veinsmobility 	stopTime 	851.1
scalar RSUExampleScenario.node[104].veinsmobility 	minSpeed 	0.25240810330119
scalar RSUExampleScenario.node[104].veinsmobility 	maxSpeed 	18.999141200506
scalar RSUExampleScenario.node[104].veinsmobility 	totalDistance 	3409.2414293974
scalar RSUExampleScenario.node[104].veinsmobility 	totalCO2Emission 	704.13194988245
scalar RSUExampleScenario.node[105].veinsmobility 	startTime 	630.1
scalar RSUExampleScenario.node[105].veinsmobility 	totalTime 	226.6
scalar RSUExampleScenario.node[105].veinsmobility 	stopTime 	856.8
scalar RSUExampleScenario.node[105].veinsmobility 	minSpeed 	0.25507993081794
scalar RSUExampleScenario.node[105].veinsmobility 	maxSpeed 	18.999879239341
scalar RSUExampleScenario.node[105].veinsmobility 	totalDistance 	3409.9770541456
scalar RSUExampleScenario.node[105].veinsmobility 	totalCO2Emission 	705.65503228464
scalar RSUExampleScenario.node[106].veinsmobility 	startTime 	636.1
scalar RSUExampleScenario.node[106].veinsmobility 	totalTime 	227.1
scalar RSUExampleScenario.node[106].veinsmobility 	stopTime 	863.3
scalar RSUExampleScenario.node[106].veinsmobility 	minSpeed 	0.25705904605635
scalar RSUExampleScenario.node[106].veinsmobility 	maxSpeed 	18.999824529567
scalar RSUExampleScenario.node[106].veinsmobility 	totalDistance 	3409.9825409919
scalar RSUExampleScenario.node[106].veinsmobility 	totalCO2Emission 	706.53730309487
scalar RSUExampleScenario.node[107].veinsmobility 	startTime 	642.1
scalar RSUExampleScenario.node[107].veinsmobility 	totalTime 	227.1
scalar RSUExampleScenario.node[107].veinsmobility 	stopTime 	869.3
scalar RSUExampleScenario.node[107].veinsmobility 	minSpeed 	0.25478067450505
scalar RSUExampleScenario.node[107].veinsmobility 	maxSpeed 	18.999587471536
scalar RSUExampleScenario.node[107].veinsmobility 	totalDistance 	3409.4774264383
scalar RSUExampleScenario.node[107].veinsmobility 	totalCO2Emission 	705.83022086246
scalar RSUExampleScenario.node[108].veinsmobility 	startTime 	648.1
scalar RSUExampleScenario.node[108].veinsmobility 	totalTime 	226.7
scalar RSUExampleScenario.node[108].veinsmobility 	stopTime 	874.9
scalar RSUExampleScenario.node[108].veinsmobility 	minSpeed 	0.25066947450279
scalar RSUExampleScenario.node[108].veinsmobility 	maxSpeed 	18.999938754248
scalar RSUExampleScenario.node[108].veinsmobility 	totalDistance 	3409.9432344852
scalar RSUExampleScenario.node[108].veinsmobility 	totalCO2Emission 	707.47693700601
scalar RSUExampleScenario.node[109].veinsmobility 	startTime 	654.1
scalar RSUExampleScenario.node[109].veinsmobility 	totalTime 	227
scalar RSUExampleScenario.node[109].veinsmobility 	stopTime 	881.2
scalar RSUExampleScenario.node[109].veinsmobility 	minSpeed 	0.25975798653113
scalar RSUExampleScenario.node[109].veinsmobility 	maxSpeed 	18.999897904184
scalar RSUExampleScenario.node[109].veinsmobility 	totalDistance 	3409.4457599142
scalar RSUExampleScenario.node[109].veinsmobility 	totalCO2Emission 	702.47515074669
scalar RSUExampleScenario.node[110].veinsmobility 	startTime 	660.1
scalar RSUExampleScenario.node[110].veinsmobility 	totalTime 	226.9
scalar RSUExampleScenario.node[110].veinsmobility 	stopTime 	887.1
scalar RSUExampleScenario.node[110].veinsmobility 	minSpeed 	0.25930386016308
scalar RSUExampleScenario.node[110].veinsmobility 	maxSpeed 	18.999196338148
scalar RSUExampleScenario.node[110].veinsmobility 	totalDistance 	3409.7676177111
scalar RSUExampleScenario.node[110].veinsmobility 	totalCO2Emission 	709.75950044703
scalar RSUExampleScenario.node[111].veinsmobility 	startTime 	666.1
scalar RSUExampleScenario.node[111].veinsmobility 	totalTime 	226.8
scalar RSUExampleScenario.node[111].veinsmobility 	stopTime 	893
scalar RSUExampleScenario.node[111].veinsmobility 	minSpeed 	0.25665492562996
scalar RSUExampleScenario.node[111].veinsmobility 	maxSpeed 	18.999548936095
scalar RSUExampleScenario.node[111].veinsmobility 	totalDistance 	3409.5176655282
scalar RSUExampleScenario.node[111].veinsmobility 	totalCO2Emission 	702.990832759
scalar RSUExampleScenario.node[112].veinsmobility 	startTime 	672.1
scalar RSUExampleScenario.node[112].veinsmobility 	totalTime 	226.9
scalar RSUExampleScenario.node[112].veinsmobility 	stopTime 	899.1
scalar RSUExampleScenario.node[112].veinsmobility 	minSpeed 	0.25856577133434
scalar RSUExampleScenario.node[112].veinsmobility 	maxSpeed 	18.999922845063
scalar RSUExampleScenario.node[112].veinsmobility 	totalDistance 	3409.5249810048
scalar RSUExampleScenario.node[112].veinsmobility 	totalCO2Emission 	706.61417603838
scalar RSUExampleScenario.node[113].veinsmobility 	startTime 	678.1
scalar RSUExampleScenario.node[113].veinsmobility 	totalTime 	226.9
scalar RSUExampleScenario.node[113].veinsmobility 	stopTime 	905.1
scalar RSUExampleScenario.node[113].veinsmobility 	minSpeed 	0.2558491406003
scalar RSUExampleScenario.node[113].veinsmobility 	maxSpeed 	18.999700107784
scalar RSUExampleScenario.node[113].veinsmobility 	totalDistance 	3409.2715318847
scalar RSUExampleScenario.node[113].veinsmobility 	totalCO2Emission 	706.22700259317
scalar RSUExampleScenario.node[114].veinsmobility 	startTime 	684.1
scalar RSUExampleScenario.node[114].veinsmobility 	totalTime 	226.9
scalar RSUExampleScenario.node[114].veinsmobility 	stopTime 	911.1
scalar RSUExampleScenario.node[114].veinsmobility 	minSpeed 	0.2573272013471
scalar RSUExampleScenario.node[114].veinsmobility 	maxSpeed 	18.999912231534
scalar RSUExampleScenario.node[114].veinsmobility 	totalDistance 	3409.5957088748
scalar RSUExampleScenario.node[114].veinsmobility 	totalCO2Emission 	710.43567466011
scalar RSUExampleScenario.node[115].veinsmobility 	startTime 	690.1
scalar RSUExampleScenario.node[115].veinsmobility 	totalTime 	226.7
scalar RSUExampleScenario.node[115].veinsmobility 	stopTime 	916.9
scalar RSUExampleScenario.node[115].veinsmobility 	minSpeed 	0.25964456602489
scalar RSUExampleScenario.node[115].veinsmobility 	maxSpeed 	18.99982585582
scalar RSUExampleScenario.node[115].veinsmobility 	totalDistance 	3409.6315993408
scalar RSUExampleScenario.node[115].veinsmobility 	totalCO2Emission 	705.39019908914
scalar RSUExampleScenario.node[116].veinsmobility 	startTime 	696.1
scalar RSUExampleScenario.node[116].veinsmobility 	totalTime 	226.7
scalar RSUExampleScenario.node[116].veinsmobility 	stopTime 	922.9
scalar RSUExampleScenario.node[116].veinsmobility 	minSpeed 	0.25475880241208
scalar RSUExampleScenario.node[116].veinsmobility 	maxSpeed 	18.999752194989
scalar RSUExampleScenario.node[116].veinsmobility 	totalDistance 	3409.4373794248
scalar RSUExampleScenario.node[116].veinsmobility 	totalCO2Emission 	706.66736277542
scalar RSUExampleScenario.node[117].veinsmobility 	startTime 	702.1
scalar RSUExampleScenario.node[117].veinsmobility 	totalTime 	227
scalar RSUExampleScenario.node[117].veinsmobility 	stopTime 	929.2
scalar RSUExampleScenario.node[117].veinsmobility 	minSpeed 	0.25450788923586
scalar RSUExampleScenario.node[117].veinsmobility 	maxSpeed 	18.999873772247
scalar RSUExampleScenario.node[117].veinsmobility 	totalDistance 	3409.4498745531
scalar RSUExampleScenario.node[117].veinsmobility 	totalCO2Emission 	706.67735740471
scalar RSUExampleScenario.node[118].veinsmobility 	startTime 	708.1
scalar RSUExampleScenario.node[118].veinsmobility 	totalTime 	227
scalar RSUExampleScenario.node[118].veinsmobility 	stopTime 	935.2
scalar RSUExampleScenario.node[118].veinsmobility 	minSpeed 	0.25312893407629
scalar RSUExampleScenario.node[118].veinsmobility 	maxSpeed 	18.999787793406
scalar RSUExampleScenario.node[118].veinsmobility 	totalDistance 	3409.0185138754
scalar RSUExampleScenario.node[118].veinsmobility 	totalCO2Emission 	707.69747479385
scalar RSUExampleScenario.node[119].veinsmobility 	startTime 	714.1
scalar RSUExampleScenario.node[119].veinsmobility 	totalTime 	226.7
scalar RSUExampleScenario.node[119].veinsmobility 	stopTime 	940.9
scalar RSUExampleScenario.node[119].veinsmobility 	minSpeed 	0.25517453424237
scalar RSUExampleScenario.node[119].veinsmobility 	maxSpeed 	18.999949994234
scalar RSUExampleScenario.node[119].veinsmobility 	totalDistance 	3409.3109430824
scalar RSUExampleScenario.node[119].veinsmobility 	totalCO2Emission 	707.30204363922
scalar RSUExampleScenario.node[120].veinsmobility 	startTime 	720.1
scalar RSUExampleScenario.node[120].veinsmobility 	totalTime 	226.9
scalar RSUExampleScenario.node[120].veinsmobility 	stopTime 	947.1
scalar RSUExampleScenario.node[120].veinsmobility 	minSpeed 	0.24913864117232
scalar RSUExampleScenario.node[120].veinsmobility 	maxSpeed 	18.99982827402
scalar RSUExampleScenario.node[120].veinsmobility 	totalDistance 	3409.1121106143
scalar RSUExampleScenario.node[120].veinsmobility 	totalCO2Emission 	701.95608534527
scalar RSUExampleScenario.node[121].veinsmobility 	startTime 	726.1
scalar RSUExampleScenario.node[121].veinsmobility 	totalTime 	226.6
scalar RSUExampleScenario.node[121].veinsmobility 	stopTime 	952.8
scalar RSUExampleScenario.node[121].veinsmobility 	minSpeed 	0.25969919849443
scalar RSUExampleScenario.node[121].veinsmobility 	maxSpeed 	18.999837771114
scalar RSUExampleScenario.node[121].veinsmobility 	totalDistance 	3409.7931548934
scalar RSUExampleScenario.node[121].veinsmobility 	totalCO2Emission 	707.40858968084
scalar RSUExampleScenario.node[122].veinsmobility 	startTime 	732.1
scalar RSUExampleScenario.node[122].veinsmobility 	totalTime 	227
scalar RSUExampleScenario.node[122].veinsmobility 	stopTime 	959.2
scalar RSUExampleScenario.node[122].veinsmobility 	minSpeed 	0.25683040939271
scalar RSUExampleScenario.node[122].veinsmobility 	maxSpeed 	18.999934211085
scalar RSUExampleScenario.node[122].veinsmobility 	totalDistance 	3409.9830376082
scalar RSUExampleScenario.node[122].veinsmobility 	totalCO2Emission 	701.47582953133
scalar RSUExampleScenario.node[123].veinsmobility 	startTime 	738.1
scalar RSUExampleScenario.node[123].veinsmobility 	totalTime 	226.9
scalar RSUExampleScenario.node[123].veinsmobility 	stopTime 	965.1
scalar RSUExampleScenario.node[123].veinsmobility 	minSpeed 	0.2596301474229
scalar RSUExampleScenario.node[123].veinsmobility 	maxSpeed 	18.999526310868
scalar RSUExampleScenario.node[123].veinsmobility 	totalDistance 	3409.2370059276
scalar RSUExampleScenario.node[123].veinsmobility 	totalCO2Emission 	706.95344690706
scalar RSUExampleScenario.node[124].veinsmobility 	startTime 	744.1
scalar RSUExampleScenario.node[124].veinsmobility 	totalTime 	226.8
scalar RSUExampleScenario.node[124].veinsmobility 	stopTime 	971
scalar RSUExampleScenario.node[124].veinsmobility 	minSpeed 	0.25225628443738
scalar RSUExampleScenario.node[124].veinsmobility 	maxSpeed 	18.999865334805
scalar RSUExampleScenario.node[124].veinsmobility 	totalDistance 	3409.5359266689
scalar RSUExampleScenario.node[124].veinsmobility 	totalCO2Emission 	703.17173025707
scalar RSUExampleScenario.node[125].veinsmobility 	startTime 	750.1
scalar RSUExampleScenario.node[125].veinsmobility 	totalTime 	226.7
scalar RSUExampleScenario.node[125].veinsmobility 	stopTime 	976.9
scalar RSUExampleScenario.node[125].veinsmobility 	minSpeed 	0.2599540951401
scalar RSUExampleScenario.node[125].veinsmobility 	maxSpeed 	18.999804424241
scalar RSUExampleScenario.node[125].veinsmobility 	totalDistance 	3409.1854096536
scalar RSUExampleScenario.node[125].veinsmobility 	totalCO2Emission 	706.81977278235
scalar RSUExampleScenario.node[126].veinsmobility 	startTime 	756.1
scalar RSUExampleScenario.node[126].veinsmobility 	totalTime 	226.8
scalar RSUExampleScenario.node[126].veinsmobility 	stopTime 	983
scalar RSUExampleScenario.node[126].veinsmobility 	minSpeed 	0.24799258685112
scalar RSUExampleScenario.node[126].veinsmobility 	maxSpeed 	18.999949750365
scalar RSUExampleScenario.node[126].veinsmobility 	totalDistance 	3409.1958930066
scalar RSUExampleScenario.node[126].veinsmobility 	totalCO2Emission 	709.93202818893
scalar RSUExampleScenario.node[127].veinsmobility 	startTime 	762.1
scalar RSUExampleScenario.node[127].veinsmobility 	totalTime 	226.9
scalar RSUExampleScenario.node[127].veinsmobility 	stopTime 	989.1
scalar RSUExampleScenario.node[127].veinsmobility 	minSpeed 	0.25901526548713
scalar RSUExampleScenario.node[127].veinsmobility 	maxSpeed 	18.999894257165
scalar RSUExampleScenario.node[127].veinsmobility 	totalDistance 	3409.5085789888
scalar RSUExampleScenario.node[127].veinsmobility 	totalCO2Emission 	706.5986866634
scalar RSUExampleScenario.node[128].veinsmobility 	startTime 	768.1
scalar RSUExampleScenario.node[128].veinsmobility 	totalTime 	227.1
scalar RSUExampleScenario.node[128].veinsmobility 	stopTime 	995.3
scalar RSUExampleScenario.node[128].veinsmobility 	minSpeed 	0.24852141075279
scalar RSUExampleScenario.node[128].veinsmobility 	maxSpeed 	18.998717085216
scalar RSUExampleScenario.node[128].veinsmobility 	totalDistance 	3409.4740417527
scalar RSUExampleScenario.node[128].veinsmobility 	totalCO2Emission 	708.87618099149
scalar RSUExampleScenario.node[129].veinsmobility 	startTime 	774.1
scalar RSUExampleScenario.node[129].veinsmobility 	totalTime 	226.7
scalar RSUExampleScenario.node[129].veinsmobility 	stopTime 	1000.9
scalar RSUExampleScenario.node[129].veinsmobility 	minSpeed 	0.24822929139435
scalar RSUExampleScenario.node[129].veinsmobility 	maxSpeed 	18.999992766255
scalar RSUExampleScenario.node[129].veinsmobility 	totalDistance 	3409.5472107498
scalar RSUExampleScenario.node[129].veinsmobility 	totalCO2Emission 	709.32301979863
scalar RSUExampleScenario.node[130].veinsmobility 	startTime 	780.1
scalar RSUExampleScenario.node[130].veinsmobility 	totalTime 	226.8
scalar RSUExampleScenario.node[130].veinsmobility 	stopTime 	1007
scalar RSUExampleScenario.node[130].veinsmobility 	minSpeed 	0.24758085287665
scalar RSUExampleScenario.node[130].veinsmobility 	maxSpeed 	18.999815892386
scalar RSUExampleScenario.node[130].veinsmobility 	totalDistance 	3409.655697903
scalar RSUExampleScenario.node[130].veinsmobility 	totalCO2Emission 	709.43560149653
scalar RSUExampleScenario.node[131].veinsmobility 	startTime 	786.1
scalar RSUExampleScenario.node[131].veinsmobility 	totalTime 	226.9
scalar RSUExampleScenario.node[131].veinsmobility 	stopTime 	1013.1
scalar RSUExampleScenario.node[131].veinsmobility 	minSpeed 	0.25058675291459
scalar RSUExampleScenario.node[131].veinsmobility 	maxSpeed 	18.999808837858
scalar RSUExampleScenario.node[131].veinsmobility 	totalDistance 	3409.3371409271
scalar RSUExampleScenario.node[131].veinsmobility 	totalCO2Emission 	707.27373943108
scalar RSUExampleScenario.node[132].veinsmobility 	startTime 	792.1
scalar RSUExampleScenario.node[132].veinsmobility 	totalTime 	227
scalar RSUExampleScenario.node[132].veinsmobility 	stopTime 	1019.2
scalar RSUExampleScenario.node[132].veinsmobility 	minSpeed 	0.25996961018164
scalar RSUExampleScenario.node[132].veinsmobility 	maxSpeed 	18.999902021568
scalar RSUExampleScenario.node[132].veinsmobility 	totalDistance 	3409.6107492116
scalar RSUExampleScenario.node[132].veinsmobility 	totalCO2Emission 	707.55972752863
scalar RSUExampleScenario.node[133].veinsmobility 	startTime 	798.1
scalar RSUExampleScenario.node[133].veinsmobility 	totalTime 	226.9
scalar RSUExampleScenario.node[133].veinsmobility 	stopTime 	1025.1
scalar RSUExampleScenario.node[133].veinsmobility 	minSpeed 	0.25037282318878
scalar RSUExampleScenario.node[133].veinsmobility 	maxSpeed 	18.999635259598
scalar RSUExampleScenario.node[133].veinsmobility 	totalDistance 	3409.5233040514
scalar RSUExampleScenario.node[133].veinsmobility 	totalCO2Emission 	702.06140936586
scalar RSUExampleScenario.node[134].veinsmobility 	startTime 	804.1
scalar RSUExampleScenario.node[134].veinsmobility 	totalTime 	226.8
scalar RSUExampleScenario.node[134].veinsmobility 	stopTime 	1031
scalar RSUExampleScenario.node[134].veinsmobility 	minSpeed 	0.25237056491757
scalar RSUExampleScenario.node[134].veinsmobility 	maxSpeed 	18.999816745096
scalar RSUExampleScenario.node[134].veinsmobility 	totalDistance 	3409.2852616855
scalar RSUExampleScenario.node[134].veinsmobility 	totalCO2Emission 	707.65648310921
scalar RSUExampleScenario.node[135].veinsmobility 	startTime 	810.1
scalar RSUExampleScenario.node[135].veinsmobility 	totalTime 	226.9
scalar RSUExampleScenario.node[135].veinsmobility 	stopTime 	1037.1
scalar RSUExampleScenario.node[135].veinsmobility 	minSpeed 	0.25790841813572
scalar RSUExampleScenario.node[135].veinsmobility 	maxSpeed 	18.999758774401
scalar RSUExampleScenario.node[135].veinsmobility 	totalDistance 	3409.4648725074
scalar RSUExampleScenario.node[135].veinsmobility 	totalCO2Emission 	705.99156652422
scalar RSUExampleScenario.node[136].veinsmobility 	startTime 	816.1
scalar RSUExampleScenario.node[136].veinsmobility 	totalTime 	226.8
scalar RSUExampleScenario.node[136].veinsmobility 	stopTime 	1043
scalar RSUExampleScenario.node[136].veinsmobility 	minSpeed 	0.25688307815115
scalar RSUExampleScenario.node[136].veinsmobility 	maxSpeed 	18.999970081248
scalar RSUExampleScenario.node[136].veinsmobility 	totalDistance 	3409.6880491134
scalar RSUExampleScenario.node[136].veinsmobility 	totalCO2Emission 	706.69159220889
scalar RSUExampleScenario.node[137].veinsmobility 	startTime 	822.1
scalar RSUExampleScenario.node[137].veinsmobility 	totalTime 	226.9
scalar RSUExampleScenario.node[137].veinsmobility 	stopTime 	1049.1
scalar RSUExampleScenario.node[137].veinsmobility 	minSpeed 	0.25419876704644
scalar RSUExampleScenario.node[137].veinsmobility 	maxSpeed 	18.999961199472
scalar RSUExampleScenario.node[137].veinsmobility 	totalDistance 	3409.1340347535
scalar RSUExampleScenario.node[137].veinsmobility 	totalCO2Emission 	708.58681349827
scalar RSUExampleScenario.node[138].veinsmobility 	startTime 	828.1
scalar RSUExampleScenario.node[138].veinsmobility 	totalTime 	226.8
scalar RSUExampleScenario.node[138].veinsmobility 	stopTime 	1055
scalar RSUExampleScenario.node[138].veinsmobility 	minSpeed 	0.2510193656988
scalar RSUExampleScenario.node[138].veinsmobility 	maxSpeed 	18.999934684294
scalar RSUExampleScenario.node[138].veinsmobility 	totalDistance 	3409.1263377347
scalar RSUExampleScenario.node[138].veinsmobility 	totalCO2Emission 	705.46240081605
scalar RSUExampleScenario.node[139].veinsmobility 	startTime 	834.1
scalar RSUExampleScenario.node[139].veinsmobility 	totalTime 	226.7
scalar RSUExampleScenario.node[139].veinsmobility 	stopTime 	1060.9
scalar RSUExampleScenario.node[139].veinsmobility 	minSpeed 	0.25453568538767
scalar RSUExampleScenario.node[139].veinsmobility 	maxSpeed 	18.999881214236
scalar RSUExampleScenario.node[139].veinsmobility 	totalDistance 	3409.4853688208
scalar RSUExampleScenario.node[139].veinsmobility 	totalCO2Emission 	709.70159124142
scalar RSUExampleScenario.node[140].veinsmobility 	startTime 	840.1
scalar RSUExampleScenario.node[140].veinsmobility 	totalTime 	226.9
scalar RSUExampleScenario.node[140].veinsmobility 	stopTime 	1067.1
scalar RSUExampleScenario.node[140].veinsmobility 	minSpeed 	0.24940473918151
scalar RSUExampleScenario.node[140].veinsmobility 	maxSpeed 	18.999968672364
scalar RSUExampleScenario.node[140].veinsmobility 	totalDistance 	3409.2052376231
scalar RSUExampleScenario.node[140].veinsmobility 	totalCO2Emission 	707.90128245884
scalar RSUExampleScenario.node[141].veinsmobility 	startTime 	846.1
scalar RSUExampleScenario.node[141].veinsmobility 	totalTime 	226.9
scalar RSUExampleScenario.node[141].veinsmobility 	stopTime 	1073.1
scalar RSUExampleScenario.node[141].veinsmobility 	minSpeed 	0.25787865753123
scalar RSUExampleScenario.node[141].veinsmobility 	maxSpeed 	18.999718562204
scalar RSUExampleScenario.node[141].veinsmobility 	totalDistance 	3409.6809343724
scalar RSUExampleScenario.node[141].veinsmobility 	totalCO2Emission 	706.93386912558
scalar RSUExampleScenario.node[142].veinsmobility 	startTime 	852.1
scalar RSUExampleScenario.node[142].veinsmobility 	totalTime 	226.8
scalar RSUExampleScenario.node[142].veinsmobility 	stopTime 	1079
scalar RSUExampleScenario.node[142].veinsmobility 	minSpeed 	0.25332772088726
scalar RSUExampleScenario.node[142].veinsmobility 	maxSpeed 	18.999981881282
scalar RSUExampleScenario.node[142].veinsmobility 	totalDistance 	3409.226852976
scalar RSUExampleScenario.node[142].veinsmobility 	totalCO2Emission 	709.75307924707
scalar RSUExampleScenario.node[143].veinsmobility 	startTime 	858.1
scalar RSUExampleScenario.node[143].veinsmobility 	totalTime 	227
scalar RSUExampleScenario.node[143].veinsmobility 	stopTime 	1085.2
scalar RSUExampleScenario.node[143].veinsmobility 	minSpeed 	0.25466686824244
scalar RSUExampleScenario.node[143].veinsmobility 	maxSpeed 	18.999915440062
scalar RSUExampleScenario.node[143].veinsmobility 	totalDistance 	3409.3675972195
scalar RSUExampleScenario.node[143].veinsmobility 	totalCO2Emission 	705.92873381182
scalar RSUExampleScenario.node[144].veinsmobility 	startTime 	864.1
scalar RSUExampleScenario.node[144].veinsmobility 	totalTime 	227
scalar RSUExampleScenario.node[144].veinsmobility 	stopTime 	1091.2
scalar RSUExampleScenario.node[144].veinsmobility 	minSpeed 	0.25358510648133
scalar RSUExampleScenario.node[144].veinsmobility 	maxSpeed 	18.999531624534
scalar RSUExampleScenario.node[144].veinsmobility 	totalDistance 	3409.4880143678
scalar RSUExampleScenario.node[144].veinsmobility 	totalCO2Emission 	707.44320805605
scalar RSUExampleScenario.node[145].veinsmobility 	startTime 	870.1
scalar RSUExampleScenario.node[145].veinsmobility 	totalTime 	227
scalar RSUExampleScenario.node[145].veinsmobility 	stopTime 	1097.2
scalar RSUExampleScenario.node[145].veinsmobility 	minSpeed 	0.25493741204939
scalar RSUExampleScenario.node[145].veinsmobility 	maxSpeed 	18.999940037036
scalar RSUExampleScenario.node[145].veinsmobility 	totalDistance 	3409.1618623323
scalar RSUExampleScenario.node[145].veinsmobility 	totalCO2Emission 	710.73035431308
scalar RSUExampleScenario.node[146].veinsmobility 	startTime 	876.1
scalar RSUExampleScenario.node[146].veinsmobility 	totalTime 	226.9
scalar RSUExampleScenario.node[146].veinsmobility 	stopTime 	1103.1
scalar RSUExampleScenario.node[146].veinsmobility 	minSpeed 	0.24811146278912
scalar RSUExampleScenario.node[146].veinsmobility 	maxSpeed 	18.99985778146
scalar RSUExampleScenario.node[146].veinsmobility 	totalDistance 	3409.4722928364
scalar RSUExampleScenario.node[146].veinsmobility 	totalCO2Emission 	706.41247683014
scalar RSUExampleScenario.node[147].veinsmobility 	startTime 	882.1
scalar RSUExampleScenario.node[147].veinsmobility 	totalTime 	226.9
scalar RSUExampleScenario.node[147].veinsmobility 	stopTime 	1109.1
scalar RSUExampleScenario.node[147].veinsmobility 	minSpeed 	0.25215684125014
scalar RSUExampleScenario.node[147].veinsmobility 	maxSpeed 	18.999924075638
scalar RSUExampleScenario.node[147].veinsmobility 	totalDistance 	3409.090151193
scalar RSUExampleScenario.node[147].veinsmobility 	totalCO2Emission 	708.56072920911
scalar RSUExampleScenario.node[148].veinsmobility 	startTime 	888.1
scalar RSUExampleScenario.node[148].veinsmobility 	totalTime 	227
scalar RSUExampleScenario.node[148].veinsmobility 	stopTime 	1115.2
scalar RSUExampleScenario.node[148].veinsmobility 	minSpeed 	0.25854466234264
scalar RSUExampleScenario.node[148].veinsmobility 	maxSpeed 	18.999709526999
scalar RSUExampleScenario.node[148].veinsmobility 	totalDistance 	3409.4713237288
scalar RSUExampleScenario.node[148].veinsmobility 	totalCO2Emission 	711.74696192855
scalar RSUExampleScenario.node[149].veinsmobility 	startTime 	894.1
scalar RSUExampleScenario.node[149].veinsmobility 	totalTime 	226.7
scalar RSUExampleScenario.node[149].veinsmobility 	stopTime 	1120.9
scalar RSUExampleScenario.node[149].veinsmobility 	minSpeed 	0.25833102688519
scalar RSUExampleScenario.node[149].veinsmobility 	maxSpeed 	18.999996598423
scalar RSUExampleScenario.node[149].veinsmobility 	totalDistance 	3409.0813387078
scalar RSUExampleScenario.node[149].veinsmobility 	totalCO2Emission 	706.53674976259
scalar RSUExampleScenario.node[150].veinsmobility 	startTime 	900.1
scalar RSUExampleScenario.node[150].veinsmobility 	totalTime 	226.9
scalar RSUExampleScenario.node[150].veinsmobility 	stopTime 	1127.1
scalar RSUExampleScenario.node[150].veinsmobility 	minSpeed 	0.25182482791133
scalar RSUExampleScenario.node[150].veinsmobility 	maxSpeed 	18.999101923257
scalar RSUExampleScenario.node[150].veinsmobility 	totalDistance 	3409.2328279582
scalar RSUExampleScenario.node[150].veinsmobility 	totalCO2Emission 	704.88905476149
scalar RSUExampleScenario.node[151].veinsmobility 	startTime 	906.1
scalar RSUExampleScenario.node[151].veinsmobility 	totalTime 	226.6
scalar RSUExampleScenario.node[151].veinsmobility 	stopTime 	1132.8
scalar RSUExampleScenario.node[151].veinsmobility 	minSpeed 	0.25204933508066
scalar RSUExampleScenario.node[151].veinsmobility 	maxSpeed 	18.999936220304
scalar RSUExampleScenario.node[151].veinsmobility 	totalDistance 	3409.7775254918
scalar RSUExampleScenario.node[151].veinsmobility 	totalCO2Emission 	707.32851767744
scalar RSUExampleScenario.node[152].veinsmobility 	startTime 	912.1
scalar RSUExampleScenario.node[152].veinsmobility 	totalTime 	227
scalar RSUExampleScenario.node[152].veinsmobility 	stopTime 	1139.2
scalar RSUExampleScenario.node[152].veinsmobility 	minSpeed 	0.25264772035088
scalar RSUExampleScenario.node[152].veinsmobility 	maxSpeed 	18.999983081317
scalar RSUExampleScenario.node[152].veinsmobility 	totalDistance 	3409.7127750648
scalar RSUExampleScenario.node[152].veinsmobility 	totalCO2Emission 	706.78797924635
[...]
scalar RSUExampleScenario.node[262].veinsmobility 	startTime 	1572.1
scalar RSUExampleScenario.node[262].veinsmobility 	totalTime 	226.8
scalar RSUExampleScenario.node[262].veinsmobility 	stopTime 	1799
scalar RSUExampleScenario.node[262].veinsmobility 	minSpeed 	0.2543181417766
scalar RSUExampleScenario.node[262].veinsmobility 	maxSpeed 	18.999865862285
scalar RSUExampleScenario.node[262].veinsmobility 	totalDistance 	3409.4926746288
scalar RSUExampleScenario.node[262].veinsmobility 	totalCO2Emission 	706.49226089782
scalar RSUExampleScenario.node[263].veinsmobility 	startTime 	1578.1
scalar RSUExampleScenario.node[263].veinsmobility 	totalTime 	226.7
scalar RSUExampleScenario.node[263].veinsmobility 	stopTime 	1804.9
scalar RSUExampleScenario.node[263].veinsmobility 	minSpeed 	0.24708097808878
scalar RSUExampleScenario.node[263].veinsmobility 	maxSpeed 	18.999961779134
scalar RSUExampleScenario.node[263].veinsmobility 	totalDistance 	3409.7577119794
scalar RSUExampleScenario.node[263].veinsmobility 	totalCO2Emission 	704.82086855176
scalar RSUExampleScenario.node[264].veinsmobility 	startTime 	1584.1
scalar RSUExampleScenario.node[264].veinsmobility 	totalTime 	226.7
scalar RSUExampleScenario.node[264].veinsmobility 	stopTime 	1810.9
scalar RSUExampleScenario.node[264].veinsmobility 	minSpeed 	0.25767333243624
scalar RSUExampleScenario.node[264].veinsmobility 	maxSpeed 	18.999745872915
scalar RSUExampleScenario.node[264].veinsmobility 	totalDistance 	3409.2323236385
scalar RSUExampleScenario.node[264].veinsmobility 	totalCO2Emission 	701.31899743816
scalar RSUExampleScenario.node[265].veinsmobility 	startTime 	1590.1
scalar RSUExampleScenario.node[265].veinsmobility 	totalTime 	227
scalar RSUExampleScenario.node[265].veinsmobility 	stopTime 	1817.2
scalar RSUExampleScenario.node[265].veinsmobility 	minSpeed 	0.25135591535177
scalar RSUExampleScenario.node[265].veinsmobility 	maxSpeed 	18.999729869899
scalar RSUExampleScenario.node[265].veinsmobility 	totalDistance 	3409.3564464303
scalar RSUExampleScenario.node[265].veinsmobility 	totalCO2Emission 	706.02089852712
scalar RSUExampleScenario.node[266].veinsmobility 	startTime 	1596.1
scalar RSUExampleScenario.node[266].veinsmobility 	totalTime 	226.9
scalar RSUExampleScenario.node[266].veinsmobility 	stopTime 	1823.1
scalar RSUExampleScenario.node[266].veinsmobility 	minSpeed 	0.24891832080064
scalar RSUExampleScenario.node[266].veinsmobility 	maxSpeed 	18.999914407409
scalar RSUExampleScenario.node[266].veinsmobility 	totalDistance 	3409.9948330303
scalar RSUExampleScenario.node[266].veinsmobility 	totalCO2Emission 	703.0835608983
scalar RSUExampleScenario.node[267].veinsmobility 	startTime 	1602.1
scalar RSUExampleScenario.node[267].veinsmobility 	totalTime 	226.7
scalar RSUExampleScenario.node[267].veinsmobility 	stopTime 	1828.9
scalar RSUExampleScenario.node[267].veinsmobility 	minSpeed 	0.25745386786456
scalar RSUExampleScenario.node[267].veinsmobility 	maxSpeed 	18.9995781391
scalar RSUExampleScenario.node[267].veinsmobility 	totalDistance 	3409.541279014
scalar RSUExampleScenario.node[267].veinsmobility 	totalCO2Emission 	708.84138206083
scalar RSUExampleScenario.node[268].veinsmobility 	startTime 	1608.1
scalar RSUExampleScenario.node[268].veinsmobility 	totalTime 	227
scalar RSUExampleScenario.node[268].veinsmobility 	stopTime 	1835.2
scalar RSUExampleScenario.node[268].veinsmobility 	minSpeed 	0.25526699611009
scalar RSUExampleScenario.node[268].veinsmobility 	maxSpeed 	18.999859815831
scalar RSUExampleScenario.node[268].veinsmobility 	totalDistance 	3409.4648617944
scalar RSUExampleScenario.node[268].veinsmobility 	totalCO2Emission 	709.51045368538
scalar RSUExampleScenario.node[269].veinsmobility 	startTime 	1614.1
scalar RSUExampleScenario.node[269].veinsmobility 	totalTime 	227.1
scalar RSUExampleScenario.node[269].veinsmobility 	stopTime 	1841.3
scalar RSUExampleScenario.node[269].veinsmobility 	minSpeed 	0.25978219345398
scalar RSUExampleScenario.node[269].veinsmobility 	maxSpeed 	18.999842273174
scalar RSUExampleScenario.node[269].veinsmobility 	totalDistance 	3409.9886335576
scalar RSUExampleScenario.node[269].veinsmobility 	totalCO2Emission 	711.16988366991
scalar RSUExampleScenario.node[270].veinsmobility 	startTime 	1620.1
scalar RSUExampleScenario.node[270].veinsmobility 	totalTime 	226.9
scalar RSUExampleScenario.node[270].veinsmobility 	stopTime 	1847.1
scalar RSUExampleScenario.node[270].veinsmobility 	minSpeed 	0.25346186400228
scalar RSUExampleScenario.node[270].veinsmobility 	maxSpeed 	18.999781057932
scalar RSUExampleScenario.node[270].veinsmobility 	totalDistance 	3409.7356144322
scalar RSUExampleScenario.node[270].veinsmobility 	totalCO2Emission 	704.55776056795
scalar RSUExampleScenario.node[271].veinsmobility 	startTime 	1626.1
scalar RSUExampleScenario.node[271].veinsmobility 	totalTime 	227
scalar RSUExampleScenario.node[271].veinsmobility 	stopTime 	1853.2
scalar RSUExampleScenario.node[271].veinsmobility 	minSpeed 	0.25067605339736
scalar RSUExampleScenario.node[271].veinsmobility 	maxSpeed 	18.999763534768
scalar RSUExampleScenario.node[271].veinsmobility 	totalDistance 	3409.1990521872
scalar RSUExampleScenario.node[271].veinsmobility 	totalCO2Emission 	712.15066557039
scalar RSUExampleScenario.node[272].veinsmobility 	startTime 	1632.1
scalar RSUExampleScenario.node[272].veinsmobility 	totalTime 	226.8
scalar RSUExampleScenario.node[272].veinsmobility 	stopTime 	1859
scalar RSUExampleScenario.node[272].veinsmobility 	minSpeed 	0.24712160241744
scalar RSUExampleScenario.node[272].veinsmobility 	maxSpeed 	18.999995946875
scalar RSUExampleScenario.node[272].veinsmobility 	totalDistance 	3409.8883188303
scalar RSUExampleScenario.node[272].veinsmobility 	totalCO2Emission 	706.27823838145
scalar RSUExampleScenario.node[273].veinsmobility 	startTime 	1638.1
scalar RSUExampleScenario.node[273].veinsmobility 	totalTime 	226.8
scalar RSUExampleScenario.node[273].veinsmobility 	stopTime 	1865
scalar RSUExampleScenario.node[273].veinsmobility 	minSpeed 	0.25438603336946
scalar RSUExampleScenario.node[273].veinsmobility 	maxSpeed 	18.999904351265
scalar RSUExampleScenario.node[273].veinsmobility 	totalDistance 	3409.1700112234
scalar RSUExampleScenario.node[273].veinsmobility 	totalCO2Emission 	709.15010775467
scalar RSUExampleScenario.node[274].veinsmobility 	startTime 	1644.1
scalar RSUExampleScenario.node[274].veinsmobility 	totalTime 	227.1
scalar RSUExampleScenario.node[274].veinsmobility 	stopTime 	1871.3
scalar RSUExampleScenario.node[274].veinsmobility 	minSpeed 	0.25678677383251
scalar RSUExampleScenario.node[274].veinsmobility 	maxSpeed 	18.99987887213
scalar RSUExampleScenario.node[274].veinsmobility 	totalDistance 	3409.5628139932
scalar RSUExampleScenario.node[274].veinsmobility 	totalCO2Emission 	707.95159531054
scalar RSUExampleScenario.node[275].veinsmobility 	startTime 	1650.1
scalar RSUExampleScenario.node[275].veinsmobility 	totalTime 	226.9
scalar RSUExampleScenario.node[275].veinsmobility 	stopTime 	1877.1
scalar RSUExampleScenario.node[275].veinsmobility 	minSpeed 	0.25698136977479
scalar RSUExampleScenario.node[275].veinsmobility 	maxSpeed 	18.999894039538
scalar RSUExampleScenario.node[275].veinsmobility 	totalDistance 	3409.3266630853
scalar RSUExampleScenario.node[275].veinsmobility 	totalCO2Emission 	707.60020544445
scalar RSUExampleScenario.node[276].veinsmobility 	startTime 	1656.1
scalar RSUExampleScenario.node[276].veinsmobility 	totalTime 	226.8
scalar RSUExampleScenario.node[276].veinsmobility 	stopTime 	1883
scalar RSUExampleScenario.node[276].veinsmobility 	minSpeed 	0.25466999332397
scalar RSUExampleScenario.node[276].veinsmobility 	maxSpeed 	18.999917770636
scalar RSUExampleScenario.node[276].veinsmobility 	totalDistance 	3409.1748254851
scalar RSUExampleScenario.node[276].veinsmobility 	totalCO2Emission 	706.45516303886
scalar RSUExampleScenario.node[277].veinsmobility 	startTime 	1662.1
scalar RSUExampleScenario.node[277].veinsmobility 	totalTime 	226.6
scalar RSUExampleScenario.node[277].veinsmobility 	stopTime 	1888.8
scalar RSUExampleScenario.node[277].veinsmobility 	minSpeed 	0.2502812047808
scalar RSUExampleScenario.node[277].veinsmobility 	maxSpeed 	18.999905041284
scalar RSUExampleScenario.node[277].veinsmobility 	totalDistance 	3409.3633166788
scalar RSUExampleScenario.node[277].veinsmobility 	totalCO2Emission 	708.25811249754
scalar RSUExampleScenario.node[278].veinsmobility 	startTime 	1668.1
scalar RSUExampleScenario.node[278].veinsmobility 	totalTime 	227
scalar RSUExampleScenario.node[278].veinsmobility 	stopTime 	1895.2
scalar RSUExampleScenario.node[278].veinsmobility 	minSpeed 	0.25162080320157
scalar RSUExampleScenario.node[278].veinsmobility 	maxSpeed 	18.999904438406
scalar RSUExampleScenario.node[278].veinsmobility 	totalDistance 	3409.7338326547
scalar RSUExampleScenario.node[278].veinsmobility 	totalCO2Emission 	704.24305087649
scalar RSUExampleScenario.node[279].veinsmobility 	startTime 	1674.1
scalar RSUExampleScenario.node[279].veinsmobility 	totalTime 	226.9
scalar RSUExampleScenario.node[279].veinsmobility 	stopTime 	1901.1
scalar RSUExampleScenario.node[279].veinsmobility 	minSpeed 	0.2520054822932
scalar RSUExampleScenario.node[279].veinsmobility 	maxSpeed 	18.999901602902
scalar RSUExampleScenario.node[279].veinsmobility 	totalDistance 	3409.1604830167
scalar RSUExampleScenario.node[279].veinsmobility 	totalCO2Emission 	707.03221496097
scalar RSUExampleScenario.node[280].veinsmobility 	startTime 	1680.1
scalar RSUExampleScenario.node[280].veinsmobility 	totalTime 	226.8
scalar RSUExampleScenario.node[280].veinsmobility 	stopTime 	1907
scalar RSUExampleScenario.node[280].veinsmobility 	minSpeed 	0.25469154039631
scalar RSUExampleScenario.node[280].veinsmobility 	maxSpeed 	18.99995471722
scalar RSUExampleScenario.node[280].veinsmobility 	totalDistance 	3409.1592257705
scalar RSUExampleScenario.node[280].veinsmobility 	totalCO2Emission 	706.99771672206
scalar RSUExampleScenario.node[281].veinsmobility 	startTime 	1686.1
scalar RSUExampleScenario.node[281].veinsmobility 	totalTime 	227
scalar RSUExampleScenario.node[281].veinsmobility 	stopTime 	1913.2
scalar RSUExampleScenario.node[281].veinsmobility 	minSpeed 	0.25477594679431
scalar RSUExampleScenario.node[281].veinsmobility 	maxSpeed 	18.999898575558
scalar RSUExampleScenario.node[281].veinsmobility 	totalDistance 	3409.2854890166
scalar RSUExampleScenario.node[281].veinsmobility 	totalCO2Emission 	706.22752252364
scalar RSUExampleScenario.node[282].veinsmobility 	startTime 	1692.1
scalar RSUExampleScenario.node[282].veinsmobility 	totalTime 	226.8
scalar RSUExampleScenario.node[282].veinsmobility 	stopTime 	1919
scalar RSUExampleScenario.node[282].veinsmobility 	minSpeed 	0.25644260558579
scalar RSUExampleScenario.node[282].veinsmobility 	maxSpeed 	18.99951765825
scalar RSUExampleScenario.node[282].veinsmobility 	totalDistance 	3409.5070146187
scalar RSUExampleScenario.node[282].veinsmobility 	totalCO2Emission 	706.20986262937
scalar RSUExampleScenario.node[283].veinsmobility 	startTime 	1698.1
scalar RSUExampleScenario.node[283].veinsmobility 	totalTime 	227.2
scalar RSUExampleScenario.node[283].veinsmobility 	stopTime 	1925.4
scalar RSUExampleScenario.node[283].veinsmobility 	minSpeed 	0.25880307322228
scalar RSUExampleScenario.node[283].veinsmobility 	maxSpeed 	18.999910714866
scalar RSUExampleScenario.node[283].veinsmobility 	totalDistance 	3409.1452663689
scalar RSUExampleScenario.node[283].veinsmobility 	totalCO2Emission 	706.24284545854
scalar RSUExampleScenario.node[284].veinsmobility 	startTime 	1704.1
scalar RSUExampleScenario.node[284].veinsmobility 	totalTime 	227.2
scalar RSUExampleScenario.node[284].veinsmobility 	stopTime 	1931.4
scalar RSUExampleScenario.node[284].veinsmobility 	minSpeed 	0.24838710899418
scalar RSUExampleScenario.node[284].veinsmobility 	maxSpeed 	18.999430834297
scalar RSUExampleScenario.node[284].veinsmobility 	totalDistance 	3409.7223889883
scalar RSUExampleScenario.node[284].veinsmobility 	totalCO2Emission 	711.82253523527
scalar RSUExampleScenario.node[285].veinsmobility 	startTime 	1710.1
scalar RSUExampleScenario.node[285].veinsmobility 	totalTime 	227
scalar RSUExampleScenario.node[285].veinsmobility 	stopTime 	1937.2
scalar RSUExampleScenario.node[285].veinsmobility 	minSpeed 	0.25510402045841
scalar RSUExampleScenario.node[285].veinsmobility 	maxSpeed 	18.999566878562
scalar RSUExampleScenario.node[285].veinsmobility 	totalDistance 	3409.3408648272
scalar RSUExampleScenario.node[285].veinsmobility 	totalCO2Emission 	704.41768483356
scalar RSUExampleScenario.node[286].veinsmobility 	startTime 	1716.1
scalar RSUExampleScenario.node[286].veinsmobility 	totalTime 	226.9
scalar RSUExampleScenario.node[286].veinsmobility 	stopTime 	1943.1
scalar RSUExampleScenario.node[286].veinsmobility 	minSpeed 	0.25934990780917
scalar RSUExampleScenario.node[286].veinsmobility 	maxSpeed 	18.999261960075
scalar RSUExampleScenario.node[286].veinsmobility 	totalDistance 	3409.062464246
scalar RSUExampleScenario.node[286].veinsmobility 	totalCO2Emission 	705.28768920545
scalar RSUExampleScenario.node[287].veinsmobility 	startTime 	1722.1
scalar RSUExampleScenario.node[287].veinsmobility 	totalTime 	227
scalar RSUExampleScenario.node[287].veinsmobility 	stopTime 	1949.2
scalar RSUExampleScenario.node[287].veinsmobility 	minSpeed 	0.24789728400321
scalar RSUExampleScenario.node[287].veinsmobility 	maxSpeed 	18.999906075844
scalar RSUExampleScenario.node[287].veinsmobility 	totalDistance 	3409.7438342871
scalar RSUExampleScenario.node[287].veinsmobility 	totalCO2Emission 	707.90040110563
scalar RSUExampleScenario.node[288].veinsmobility 	startTime 	1728.1
scalar RSUExampleScenario.node[288].veinsmobility 	totalTime 	226.7
scalar RSUExampleScenario.node[288].veinsmobility 	stopTime 	1954.9
scalar RSUExampleScenario.node[288].veinsmobility 	minSpeed 	0.2582754738119
scalar RSUExampleScenario.node[288].veinsmobility 	maxSpeed 	18.999720819348
scalar RSUExampleScenario.node[288].veinsmobility 	totalDistance 	3409.4374386483
scalar RSUExampleScenario.node[288].veinsmobility 	totalCO2Emission 	707.98966949354
scalar RSUExampleScenario.node[289].veinsmobility 	startTime 	1734.1
scalar RSUExampleScenario.node[289].veinsmobility 	totalTime 	226.7
scalar RSUExampleScenario.node[289].veinsmobility 	stopTime 	1960.9
scalar RSUExampleScenario.node[289].veinsmobility 	minSpeed 	0.24829354814137
scalar RSUExampleScenario.node[289].veinsmobility 	maxSpeed 	18.99992524592
scalar RSUExampleScenario.node[289].veinsmobility 	totalDistance 	3409.3747746675
scalar RSUExampleScenario.node[289].veinsmobility 	totalCO2Emission 	706.89106574805
scalar RSUExampleScenario.node[290].veinsmobility 	startTime 	1740.1
scalar RSUExampleScenario.node[290].veinsmobility 	totalTime 	226.8
scalar RSUExampleScenario.node[290].veinsmobility 	stopTime 	1967
scalar RSUExampleScenario.node[290].veinsmobility 	minSpeed 	0.25709398570657
scalar RSUExampleScenario.node[290].veinsmobility 	maxSpeed 	18.99984368118
scalar RSUExampleScenario.node[290].veinsmobility 	totalDistance 	3409.5953445793
scalar RSUExampleScenario.node[290].veinsmobility 	totalCO2Emission 	707.97052117439
scalar RSUExampleScenario.node[291].veinsmobility 	startTime 	1746.1
scalar RSUExampleScenario.node[291].veinsmobility 	totalTime 	226.5
scalar RSUExampleScenario.node[291].veinsmobility 	stopTime 	1972.7
scalar RSUExampleScenario.node[291].veinsmobility 	minSpeed 	0.25296977463621
scalar RSUExampleScenario.node[291].veinsmobility 	maxSpeed 	18.999866024945
scalar RSUExampleScenario.node[291].veinsmobility 	totalDistance 	3408.9970802332
scalar RSUExampleScenario.node[291].veinsmobility 	totalCO2Emission 	706.98679114888
scalar RSUExampleScenario.node[292].veinsmobility 	startTime 	1752.1
scalar RSUExampleScenario.node[292].veinsmobility 	totalTime 	226.8
scalar RSUExampleScenario.node[292].veinsmobility 	stopTime 	1979
scalar RSUExampleScenario.node[292].veinsmobility 	minSpeed 	0.25886171543389
scalar RSUExampleScenario.node[292].veinsmobility 	maxSpeed 	18.998431079891
scalar RSUExampleScenario.node[292].veinsmobility 	totalDistance 	3409.2765815377
scalar RSUExampleScenario.node[292].veinsmobility 	totalCO2Emission 	703.43792061402
scalar RSUExampleScenario.node[293].veinsmobility 	startTime 	1758.1
scalar RSUExampleScenario.node[293].veinsmobility 	totalTime 	227
scalar RSUExampleScenario.node[293].veinsmobility 	stopTime 	1985.2
scalar RSUExampleScenario.node[293].veinsmobility 	minSpeed 	0.25322157465224
scalar RSUExampleScenario.node[293].veinsmobility 	maxSpeed 	18.999893628741
scalar RSUExampleScenario.node[293].veinsmobility 	totalDistance 	3409.504413134
scalar RSUExampleScenario.node[293].veinsmobility 	totalCO2Emission 	704.00373991083
scalar RSUExampleScenario.node[294].veinsmobility 	startTime 	1764.1
scalar RSUExampleScenario.node[294].veinsmobility 	totalTime 	226.9
scalar RSUExampleScenario.node[294].veinsmobility 	stopTime 	1991.1
scalar RSUExampleScenario.node[294].veinsmobility 	minSpeed 	0.25485573699488
scalar RSUExampleScenario.node[294].veinsmobility 	maxSpeed 	18.999193817037
scalar RSUExampleScenario.node[294].veinsmobility 	totalDistance 	3409.2526063684
scalar RSUExampleScenario.node[294].veinsmobility 	totalCO2Emission 	702.89796694328
scalar RSUExampleScenario.node[295].veinsmobility 	startTime 	1770.1
scalar RSUExampleScenario.node[295].veinsmobility 	totalTime 	226.8
scalar RSUExampleScenario.node[295].veinsmobility 	stopTime 	1997
scalar RSUExampleScenario.node[295].veinsmobility 	minSpeed 	0.24855873574712
scalar RSUExampleScenario.node[295].veinsmobility 	maxSpeed 	18.999876075792
scalar RSUExampleScenario.node[295].veinsmobility 	totalDistance 	3409.7858489391
scalar RSUExampleScenario.node[295].veinsmobility 	totalCO2Emission 	708.35658202835
scalar RSUExampleScenario.node[296].veinsmobility 	startTime 	1776.1
scalar RSUExampleScenario.node[296].veinsmobility 	totalTime 	223.8
scalar RSUExampleScenario.node[296].veinsmobility 	stopTime 	2000
scalar RSUExampleScenario.node[296].veinsmobility 	minSpeed 	0.25493415386137
scalar RSUExampleScenario.node[296].veinsmobility 	maxSpeed 	18.999947896542
scalar RSUExampleScenario.node[296].veinsmobility 	totalDistance 	3389.5409911808
scalar RSUExampleScenario.node[296].veinsmobility 	totalCO2Emission 	693.25391597543
scalar RSUExampleScenario.node[297].veinsmobility 	startTime 	1782.1
scalar RSUExampleScenario.node[297].veinsmobility 	totalTime 	217.8
scalar RSUExampleScenario.node[297].veinsmobility 	stopTime 	2000
scalar RSUExampleScenario.node[297].veinsmobility 	minSpeed 	0.25065339015075
scalar RSUExampleScenario.node[297].veinsmobility 	maxSpeed 	18.99952268776
scalar RSUExampleScenario.node[297].veinsmobility 	totalDistance 	3328.3665630573
scalar RSUExampleScenario.node[297].veinsmobility 	totalCO2Emission 	685.88881364119
scalar RSUExampleScenario.node[298].veinsmobility 	startTime 	1788.1
scalar RSUExampleScenario.node[298].veinsmobility 	totalTime 	211.8
scalar RSUExampleScenario.node[298].veinsmobility 	stopTime 	2000
scalar RSUExampleScenario.node[298].veinsmobility 	minSpeed 	0.24938207135536
scalar RSUExampleScenario.node[298].veinsmobility 	maxSpeed 	18.999996841778
scalar RSUExampleScenario.node[298].veinsmobility 	totalDistance 	3242.0470327701
scalar RSUExampleScenario.node[298].veinsmobility 	totalCO2Emission 	668.87675874321
scalar RSUExampleScenario.node[299].veinsmobility 	startTime 	1794.1
scalar RSUExampleScenario.node[299].veinsmobility 	totalTime 	205.8
scalar RSUExampleScenario.node[299].veinsmobility 	stopTime 	2000
scalar RSUExampleScenario.node[299].veinsmobility 	minSpeed 	0.25853374749888
scalar RSUExampleScenario.node[299].veinsmobility 	maxSpeed 	18.999208760764
scalar RSUExampleScenario.node[299].veinsmobility 	totalDistance 	3160.4145880754
scalar RSUExampleScenario.node[299].veinsmobility 	totalCO2Emission 	653.75108106499
