version 2
run statisticRVV-220-20150326-07:55:40-3804
attr c 5
attr configname statisticRVV
attr datetime 20150326-07:55:40
attr experiment statisticRVV
attr inifile omnetpp.ini
attr iterationvars "$sc=\"erlangen-medium.launchd.xml\", $p=1/5, $c=5"
attr iterationvars2 "$sc=\"erlangen-medium.launchd.xml\", $p=1/5, $c=5, $repetition=0"
attr measurement "$sc=\"erlangen-medium.launchd.xml\", $p=1/5, $c=5"
attr network RSUExampleScenario
attr p 1/5
attr processid 3804
attr repetition 0
attr replication #0
attr resultdir results
attr runnumber 220
attr sc "\"erlangen-medium.launchd.xml\""
attr seedset 220

scalar . 	c 	5
scalar RSUExampleScenario.node[0].veinsmobility 	startTime 	0.1
scalar RSUExampleScenario.node[0].veinsmobility 	totalTime 	264.5
scalar RSUExampleScenario.node[0].veinsmobility 	stopTime 	264.7
scalar RSUExampleScenario.node[0].veinsmobility 	minSpeed 	0.2553180212474
scalar RSUExampleScenario.node[0].veinsmobility 	maxSpeed 	13.999944236719
scalar RSUExampleScenario.node[0].veinsmobility 	totalDistance 	3409.8500239596
scalar RSUExampleScenario.node[0].veinsmobility 	totalCO2Emission 	696.8397304542
scalar RSUExampleScenario.node[1].veinsmobility 	startTime 	3.1
scalar RSUExampleScenario.node[1].veinsmobility 	totalTime 	265.3
scalar RSUExampleScenario.node[1].veinsmobility 	stopTime 	268.5
scalar RSUExampleScenario.node[1].veinsmobility 	minSpeed 	0.24713366832538
scalar RSUExampleScenario.node[1].veinsmobility 	maxSpeed 	13.999992166827
scalar RSUExampleScenario.node[1].veinsmobility 	totalDistance 	3409.1465716542
scalar RSUExampleScenario.node[1].veinsmobility 	totalCO2Emission 	690.96802609479
scalar RSUExampleScenario.node[2].veinsmobility 	startTime 	6.1
scalar RSUExampleScenario.node[2].veinsmobility 	totalTime 	266
scalar RSUExampleScenario.node[2].veinsmobility 	stopTime 	272.2
scalar RSUExampleScenario.node[2].veinsmobility 	minSpeed 	0.24984655180434
scalar RSUExampleScenario.node[2].veinsmobility 	maxSpeed 	13.999972530534
scalar RSUExampleScenario.node[2].veinsmobility 	totalDistance 	3409.5345186413
scalar RSUExampleScenario.node[2].veinsmobility 	totalCO2Emission 	696.68724104346
scalar RSUExampleScenario.node[3].veinsmobility 	startTime 	9.1
scalar RSUExampleScenario.node[3].veinsmobility 	totalTime 	266.5
scalar RSUExampleScenario.node[3].veinsmobility 	stopTime 	275.7
scalar RSUExampleScenario.node[3].veinsmobility 	minSpeed 	0.25313163099298
scalar RSUExampleScenario.node[3].veinsmobility 	maxSpeed 	13.99989940021
scalar RSUExampleScenario.node[3].veinsmobility 	totalDistance 	3409.2249614807
scalar RSUExampleScenario.node[3].veinsmobility 	totalCO2Emission 	689.88956339481
scalar RSUExampleScenario.node[4].veinsmobility 	startTime 	12.1
scalar RSUExampleScenario.node[4].veinsmobility 	totalTime 	266.6
scalar RSUExampleScenario.node[4].veinsmobility 	stopTime 	278.8
scalar RSUExampleScenario.node[4].veinsmobility 	minSpeed 	0.24942690592725
scalar RSUExampleScenario.node[4].veinsmobility 	maxSpeed 	13.999867405922
scalar RSUExampleScenario.node[4].veinsmobility 	totalDistance 	3413.1345228089
scalar RSUExampleScenario.node[4].veinsmobility 	totalCO2Emission 	696.29188547942
scalar RSUExampleScenario.node[5].veinsmobility 	startTime 	15.1
scalar RSUExampleScenario.node[5].veinsmobility 	totalTime 	266.9
scalar RSUExampleScenario.node[5].veinsmobility 	stopTime 	282.1
scalar RSUExampleScenario.node[5].veinsmobility 	minSpeed 	0.25153738008323
scalar RSUExampleScenario.node[5].veinsmobility 	maxSpeed 	13.999892334058
scalar RSUExampleScenario.node[5].veinsmobility 	totalDistance 	3409.7332613912
scalar RSUExampleScenario.node[5].veinsmobility 	totalCO2Emission 	691.77537279668
scalar RSUExampleScenario.node[6].veinsmobility 	startTime 	18.1
scalar RSUExampleScenario.node[6].veinsmobility 	totalTime 	267
scalar RSUExampleScenario.node[6].veinsmobility 	stopTime 	285.2
scalar RSUExampleScenario.node[6].veinsmobility 	minSpeed 	0.25007123020268
scalar RSUExampleScenario.node[6].veinsmobility 	maxSpeed 	13.999903172962
scalar RSUExampleScenario.node[6].veinsmobility 	totalDistance 	3413.4258007181
scalar RSUExampleScenario.node[6].veinsmobility 	totalCO2Emission 	694.60601925217
scalar RSUExampleScenario.node[7].veinsmobility 	startTime 	21.1
scalar RSUExampleScenario.node[7].veinsmobility 	totalTime 	267
scalar RSUExampleScenario.node[7].veinsmobility 	stopTime 	288.2
scalar RSUExampleScenario.node[7].veinsmobility 	minSpeed 	0.25765791432187
scalar RSUExampleScenario.node[7].veinsmobility 	maxSpeed 	13.999976384798
scalar RSUExampleScenario.node[7].veinsmobility 	totalDistance 	3409.4207154369
scalar RSUExampleScenario.node[7].veinsmobility 	totalCO2Emission 	688.13294367118
scalar RSUExampleScenario.node[8].veinsmobility 	startTime 	24.1
scalar RSUExampleScenario.node[8].veinsmobility 	totalTime 	267.1
scalar RSUExampleScenario.node[8].veinsmobility 	stopTime 	291.3
scalar RSUExampleScenario.node[8].veinsmobility 	minSpeed 	0.24738255502982
scalar RSUExampleScenario.node[8].veinsmobility 	maxSpeed 	13.999990063959
scalar RSUExampleScenario.node[8].veinsmobility 	totalDistance 	3413.5809670707
scalar RSUExampleScenario.node[8].veinsmobility 	totalCO2Emission 	693.42735455952
scalar RSUExampleScenario.node[9].veinsmobility 	startTime 	27.1
scalar RSUExampleScenario.node[9].veinsmobility 	totalTime 	267.1
scalar RSUExampleScenario.node[9].veinsmobility 	stopTime 	294.3
scalar RSUExampleScenario.node[9].veinsmobility 	minSpeed 	0.25300246871682
scalar RSUExampleScenario.node[9].veinsmobility 	maxSpeed 	13.999928454084
scalar RSUExampleScenario.node[9].veinsmobility 	totalDistance 	3409.8392898627
scalar RSUExampleScenario.node[9].veinsmobility 	totalCO2Emission 	693.23129126115
scalar RSUExampleScenario.node[10].veinsmobility 	startTime 	30.1
scalar RSUExampleScenario.node[10].veinsmobility 	totalTime 	267.2
scalar RSUExampleScenario.node[10].veinsmobility 	stopTime 	297.4
scalar RSUExampleScenario.node[10].veinsmobility 	minSpeed 	0.25902681853436
scalar RSUExampleScenario.node[10].veinsmobility 	maxSpeed 	13.999998004402
scalar RSUExampleScenario.node[10].veinsmobility 	totalDistance 	3414.2280341157
scalar RSUExampleScenario.node[10].veinsmobility 	totalCO2Emission 	691.3966991031
scalar RSUExampleScenario.node[11].veinsmobility 	startTime 	33.1
scalar RSUExampleScenario.node[11].veinsmobility 	totalTime 	267.2
scalar RSUExampleScenario.node[11].veinsmobility 	stopTime 	300.4
scalar RSUExampleScenario.node[11].veinsmobility 	minSpeed 	0.2519772315314
scalar RSUExampleScenario.node[11].veinsmobility 	maxSpeed 	13.99998501532
scalar RSUExampleScenario.node[11].veinsmobility 	totalDistance 	3409.4195224268
scalar RSUExampleScenario.node[11].veinsmobility 	totalCO2Emission 	688.17433615121
scalar RSUExampleScenario.node[12].veinsmobility 	startTime 	36.1
scalar RSUExampleScenario.node[12].veinsmobility 	totalTime 	267.2
scalar RSUExampleScenario.node[12].veinsmobility 	stopTime 	303.4
scalar RSUExampleScenario.node[12].veinsmobility 	minSpeed 	0.2503237178165
scalar RSUExampleScenario.node[12].veinsmobility 	maxSpeed 	13.999982446113
scalar RSUExampleScenario.node[12].veinsmobility 	totalDistance 	3413.4426696845
scalar RSUExampleScenario.node[12].veinsmobility 	totalCO2Emission 	690.28947583647
scalar RSUExampleScenario.node[13].veinsmobility 	startTime 	39.1
scalar RSUExampleScenario.node[13].veinsmobility 	totalTime 	267.2
scalar RSUExampleScenario.node[13].veinsmobility 	stopTime 	306.4
scalar RSUExampleScenario.node[13].veinsmobility 	minSpeed 	0.25726067666546
scalar RSUExampleScenario.node[13].veinsmobility 	maxSpeed 	13.999998795092
scalar RSUExampleScenario.node[13].veinsmobility 	totalDistance 	3409.2851673873
scalar RSUExampleScenario.node[13].veinsmobility 	totalCO2Emission 	692.56408236251
scalar RSUExampleScenario.node[14].veinsmobility 	startTime 	42.1
scalar RSUExampleScenario.node[14].veinsmobility 	totalTime 	267.3
scalar RSUExampleScenario.node[14].veinsmobility 	stopTime 	309.5
scalar RSUExampleScenario.node[14].veinsmobility 	minSpeed 	0.25251974333567
scalar RSUExampleScenario.node[14].veinsmobility 	maxSpeed 	13.999853664106
scalar RSUExampleScenario.node[14].veinsmobility 	totalDistance 	3414.1233397208
scalar RSUExampleScenario.node[14].veinsmobility 	totalCO2Emission 	691.13118513604
scalar RSUExampleScenario.node[15].veinsmobility 	startTime 	45.1
scalar RSUExampleScenario.node[15].veinsmobility 	totalTime 	267.3
scalar RSUExampleScenario.node[15].veinsmobility 	stopTime 	312.5
scalar RSUExampleScenario.node[15].veinsmobility 	minSpeed 	0.25453984930879
scalar RSUExampleScenario.node[15].veinsmobility 	maxSpeed 	13.999955220576
scalar RSUExampleScenario.node[15].veinsmobility 	totalDistance 	3409.9395892736
scalar RSUExampleScenario.node[15].veinsmobility 	totalCO2Emission 	692.93965190971
scalar RSUExampleScenario.node[16].veinsmobility 	startTime 	48.1
scalar RSUExampleScenario.node[16].veinsmobility 	totalTime 	267.3
scalar RSUExampleScenario.node[16].veinsmobility 	stopTime 	315.5
scalar RSUExampleScenario.node[16].veinsmobility 	minSpeed 	0.25460265342263
scalar RSUExampleScenario.node[16].veinsmobility 	maxSpeed 	13.999970844728
scalar RSUExampleScenario.node[16].veinsmobility 	totalDistance 	3413.5069210557
scalar RSUExampleScenario.node[16].veinsmobility 	totalCO2Emission 	693.07797302731
scalar RSUExampleScenario.node[17].veinsmobility 	startTime 	51.1
scalar RSUExampleScenario.node[17].veinsmobility 	totalTime 	267.3
scalar RSUExampleScenario.node[17].veinsmobility 	stopTime 	318.5
scalar RSUExampleScenario.node[17].veinsmobility 	minSpeed 	0.25678767581237
scalar RSUExampleScenario.node[17].veinsmobility 	maxSpeed 	13.999987731811
scalar RSUExampleScenario.node[17].veinsmobility 	totalDistance 	3409.3794963993
scalar RSUExampleScenario.node[17].veinsmobility 	totalCO2Emission 	691.25935977244
scalar RSUExampleScenario.node[18].veinsmobility 	startTime 	54.1
scalar RSUExampleScenario.node[18].veinsmobility 	totalTime 	267.4
scalar RSUExampleScenario.node[18].veinsmobility 	stopTime 	321.6
scalar RSUExampleScenario.node[18].veinsmobility 	minSpeed 	0.24971847584611
scalar RSUExampleScenario.node[18].veinsmobility 	maxSpeed 	13.999917669601
scalar RSUExampleScenario.node[18].veinsmobility 	totalDistance 	3414.1921800495
scalar RSUExampleScenario.node[18].veinsmobility 	totalCO2Emission 	689.80731445452
scalar RSUExampleScenario.node[19].veinsmobility 	startTime 	57.1
scalar RSUExampleScenario.node[19].veinsmobility 	totalTime 	267.5
scalar RSUExampleScenario.node[19].veinsmobility 	stopTime 	324.7
scalar RSUExampleScenario.node[19].veinsmobility 	minSpeed 	0.25745667188754
scalar RSUExampleScenario.node[19].veinsmobility 	maxSpeed 	13.999846069838
scalar RSUExampleScenario.node[19].veinsmobility 	totalDistance 	3409.9725802739
scalar RSUExampleScenario.node[19].veinsmobility 	totalCO2Emission 	691.54375424878
scalar RSUExampleScenario.node[20].veinsmobility 	startTime 	60.1
scalar RSUExampleScenario.node[20].veinsmobility 	totalTime 	267.6
scalar RSUExampleScenario.node[20].veinsmobility 	stopTime 	327.8
scalar RSUExampleScenario.node[20].veinsmobility 	minSpeed 	0.25041228597146
scalar RSUExampleScenario.node[20].veinsmobility 	maxSpeed 	13.999841913106
scalar RSUExampleScenario.node[20].veinsmobility 	totalDistance 	3414.0277250345
scalar RSUExampleScenario.node[20].veinsmobility 	totalCO2Emission 	687.21239318918
scalar RSUExampleScenario.node[21].veinsmobility 	startTime 	63.1
scalar RSUExampleScenario.node[21].veinsmobility 	totalTime 	267.7
scalar RSUExampleScenario.node[21].veinsmobility 	stopTime 	330.9
scalar RSUExampleScenario.node[21].veinsmobility 	minSpeed 	0.24759846285614
scalar RSUExampleScenario.node[21].veinsmobility 	maxSpeed 	13.999906772734
scalar RSUExampleScenario.node[21].veinsmobility 	totalDistance 	3409.7769561663
scalar RSUExampleScenario.node[21].veinsmobility 	totalCO2Emission 	692.91624377876
scalar RSUExampleScenario.node[22].veinsmobility 	startTime 	66.1
scalar RSUExampleScenario.node[22].veinsmobility 	totalTime 	267.8
scalar RSUExampleScenario.node[22].veinsmobility 	stopTime 	334
scalar RSUExampleScenario.node[22].veinsmobility 	minSpeed 	0.25602063290286
scalar RSUExampleScenario.node[22].veinsmobility 	maxSpeed 	13.999875262128
scalar RSUExampleScenario.node[22].veinsmobility 	totalDistance 	3413.5621294431
scalar RSUExampleScenario.node[22].veinsmobility 	totalCO2Emission 	697.61598240983
scalar RSUExampleScenario.node[23].veinsmobility 	startTime 	69.1
scalar RSUExampleScenario.node[23].veinsmobility 	totalTime 	267.9
scalar RSUExampleScenario.node[23].veinsmobility 	stopTime 	337.1
scalar RSUExampleScenario.node[23].veinsmobility 	minSpeed 	0.25490284696245
scalar RSUExampleScenario.node[23].veinsmobility 	maxSpeed 	13.999906181479
scalar RSUExampleScenario.node[23].veinsmobility 	totalDistance 	3409.2845809589
scalar RSUExampleScenario.node[23].veinsmobility 	totalCO2Emission 	694.61538243824
scalar RSUExampleScenario.node[24].veinsmobility 	startTime 	72.1
scalar RSUExampleScenario.node[24].veinsmobility 	totalTime 	268
scalar RSUExampleScenario.node[24].veinsmobility 	stopTime 	340.2
scalar RSUExampleScenario.node[24].veinsmobility 	minSpeed 	0.25478219998721
scalar RSUExampleScenario.node[24].veinsmobility 	maxSpeed 	13.999918616323
scalar RSUExampleScenario.node[24].veinsmobility 	totalDistance 	3413.5824602917
scalar RSUExampleScenario.node[24].veinsmobility 	totalCO2Emission 	688.43216965008
scalar RSUExampleScenario.node[25].veinsmobility 	startTime 	75.1
scalar RSUExampleScenario.node[25].veinsmobility 	totalTime 	268.2
scalar RSUExampleScenario.node[25].veinsmobility 	stopTime 	343.4
scalar RSUExampleScenario.node[25].veinsmobility 	minSpeed 	0.24785600992385
scalar RSUExampleScenario.node[25].veinsmobility 	maxSpeed 	13.999780267242
scalar RSUExampleScenario.node[25].veinsmobility 	totalDistance 	3409.5140916984
scalar RSUExampleScenario.node[25].veinsmobility 	totalCO2Emission 	691.87814832289
scalar RSUExampleScenario.node[26].veinsmobility 	startTime 	78.1
scalar RSUExampleScenario.node[26].veinsmobility 	totalTime 	268.4
scalar RSUExampleScenario.node[26].veinsmobility 	stopTime 	346.6
scalar RSUExampleScenario.node[26].veinsmobility 	minSpeed 	0.25518116257363
scalar RSUExampleScenario.node[26].veinsmobility 	maxSpeed 	13.999945834263
scalar RSUExampleScenario.node[26].veinsmobility 	totalDistance 	3413.7276659633
scalar RSUExampleScenario.node[26].veinsmobility 	totalCO2Emission 	687.46234003448
scalar RSUExampleScenario.node[27].veinsmobility 	startTime 	81.1
scalar RSUExampleScenario.node[27].veinsmobility 	totalTime 	268.7
scalar RSUExampleScenario.node[27].veinsmobility 	stopTime 	349.9
scalar RSUExampleScenario.node[27].veinsmobility 	minSpeed 	0.25058097853698
scalar RSUExampleScenario.node[27].veinsmobility 	maxSpeed 	13.999933642652
scalar RSUExampleScenario.node[27].veinsmobility 	totalDistance 	3409.9780731801
scalar RSUExampleScenario.node[27].veinsmobility 	totalCO2Emission 	692.55065906291
scalar RSUExampleScenario.node[28].veinsmobility 	startTime 	84.1
scalar RSUExampleScenario.node[28].veinsmobility 	totalTime 	269
scalar RSUExampleScenario.node[28].veinsmobility 	stopTime 	353.2
scalar RSUExampleScenario.node[28].veinsmobility 	minSpeed 	0.24705587212206
scalar RSUExampleScenario.node[28].veinsmobility 	maxSpeed 	13.999927780288
scalar RSUExampleScenario.node[28].veinsmobility 	totalDistance 	3413.4953762754
scalar RSUExampleScenario.node[28].veinsmobility 	totalCO2Emission 	686.72672344494
scalar RSUExampleScenario.node[29].veinsmobility 	startTime 	87.1
scalar RSUExampleScenario.node[29].veinsmobility 	totalTime 	269.4
scalar RSUExampleScenario.node[29].veinsmobility 	stopTime 	356.6
scalar RSUExampleScenario.node[29].veinsmobility 	minSpeed 	0.25455366830504
scalar RSUExampleScenario.node[29].veinsmobility 	maxSpeed 	13.999944097304
scalar RSUExampleScenario.node[29].veinsmobility 	totalDistance 	3409.877277348
scalar RSUExampleScenario.node[29].veinsmobility 	totalCO2Emission 	693.96272289809
scalar RSUExampleScenario.node[30].veinsmobility 	startTime 	90.1
scalar RSUExampleScenario.node[30].veinsmobility 	totalTime 	269.8
scalar RSUExampleScenario.node[30].veinsmobility 	stopTime 	360
scalar RSUExampleScenario.node[30].veinsmobility 	minSpeed 	0.25769571630028
scalar RSUExampleScenario.node[30].veinsmobility 	maxSpeed 	13.999980266728
scalar RSUExampleScenario.node[30].veinsmobility 	totalDistance 	3413.9687076395
scalar RSUExampleScenario.node[30].veinsmobility 	totalCO2Emission 	690.48615478472
scalar RSUExampleScenario.node[31].veinsmobility 	startTime 	93.1
scalar RSUExampleScenario.node[31].veinsmobility 	totalTime 	270.3
scalar RSUExampleScenario.node[31].veinsmobility 	stopTime 	363.5
scalar RSUExampleScenario.node[31].veinsmobility 	minSpeed 	0.24803848391399
scalar RSUExampleScenario.node[31].veinsmobility 	maxSpeed 	13.999975931747
scalar RSUExampleScenario.node[31].veinsmobility 	totalDistance 	3410.1961426608
scalar RSUExampleScenario.node[31].veinsmobility 	totalCO2Emission 	692.73362712737
scalar RSUExampleScenario.node[32].veinsmobility 	startTime 	96.1
scalar RSUExampleScenario.node[32].veinsmobility 	totalTime 	270.9
scalar RSUExampleScenario.node[32].veinsmobility 	stopTime 	367.1
scalar RSUExampleScenario.node[32].veinsmobility 	minSpeed 	0.25639056042954
scalar RSUExampleScenario.node[32].veinsmobility 	maxSpeed 	13.999950122994
scalar RSUExampleScenario.node[32].veinsmobility 	totalDistance 	3414.2281409781
scalar RSUExampleScenario.node[32].veinsmobility 	totalCO2Emission 	694.60738038165
scalar RSUExampleScenario.node[33].veinsmobility 	startTime 	99.1
scalar RSUExampleScenario.node[33].veinsmobility 	totalTime 	271.5
scalar RSUExampleScenario.node[33].veinsmobility 	stopTime 	370.7
scalar RSUExampleScenario.node[33].veinsmobility 	minSpeed 	0.2492820532429
scalar RSUExampleScenario.node[33].veinsmobility 	maxSpeed 	13.999820850978
scalar RSUExampleScenario.node[33].veinsmobility 	totalDistance 	3409.8505735261
scalar RSUExampleScenario.node[33].veinsmobility 	totalCO2Emission 	692.16786853252
scalar RSUExampleScenario.node[34].veinsmobility 	startTime 	102.1
scalar RSUExampleScenario.node[34].veinsmobility 	totalTime 	272.2
scalar RSUExampleScenario.node[34].veinsmobility 	stopTime 	374.4
scalar RSUExampleScenario.node[34].veinsmobility 	minSpeed 	0.2589212484716
scalar RSUExampleScenario.node[34].veinsmobility 	maxSpeed 	13.999953782605
scalar RSUExampleScenario.node[34].veinsmobility 	totalDistance 	3413.7745577617
scalar RSUExampleScenario.node[34].veinsmobility 	totalCO2Emission 	693.52046239055
scalar RSUExampleScenario.node[35].veinsmobility 	startTime 	105.1
scalar RSUExampleScenario.node[35].veinsmobility 	totalTime 	272.8
scalar RSUExampleScenario.node[35].veinsmobility 	stopTime 	378
scalar RSUExampleScenario.node[35].veinsmobility 	minSpeed 	0.25545982386637
scalar RSUExampleScenario.node[35].veinsmobility 	maxSpeed 	13.999973434729
scalar RSUExampleScenario.node[35].veinsmobility 	totalDistance 	3410.195308066
scalar RSUExampleScenario.node[35].veinsmobility 	totalCO2Emission 	697.78906778718
scalar RSUExampleScenario.node[36].veinsmobility 	startTime 	108.1
scalar RSUExampleScenario.node[36].veinsmobility 	totalTime 	273.4
scalar RSUExampleScenario.node[36].veinsmobility 	stopTime 	381.6
scalar RSUExampleScenario.node[36].veinsmobility 	minSpeed 	0.24749391164701
scalar RSUExampleScenario.node[36].veinsmobility 	maxSpeed 	13.999862300288
scalar RSUExampleScenario.node[36].veinsmobility 	totalDistance 	3413.5764857766
scalar RSUExampleScenario.node[36].veinsmobility 	totalCO2Emission 	693.22127729797
scalar RSUExampleScenario.node[37].veinsmobility 	startTime 	111.1
scalar RSUExampleScenario.node[37].veinsmobility 	totalTime 	274.1
scalar RSUExampleScenario.node[37].veinsmobility 	stopTime 	385.3
scalar RSUExampleScenario.node[37].veinsmobility 	minSpeed 	0.25197385307355
scalar RSUExampleScenario.node[37].veinsmobility 	maxSpeed 	13.999820647123
scalar RSUExampleScenario.node[37].veinsmobility 	totalDistance 	3409.9255798288
scalar RSUExampleScenario.node[37].veinsmobility 	totalCO2Emission 	695.19186467021
scalar RSUExampleScenario.node[38].veinsmobility 	startTime 	114.1
scalar RSUExampleScenario.node[38].veinsmobility 	totalTime 	274.8
scalar RSUExampleScenario.node[38].veinsmobility 	stopTime 	389
scalar RSUExampleScenario.node[38].veinsmobility 	minSpeed 	0.25966486622579
scalar RSUExampleScenario.node[38].veinsmobility 	maxSpeed 	13.999962483863
scalar RSUExampleScenario.node[38].veinsmobility 	totalDistance 	3414.2023745746
scalar RSUExampleScenario.node[38].veinsmobility 	totalCO2Emission 	696.63734973225
scalar RSUExampleScenario.node[39].veinsmobility 	startTime 	117.1
scalar RSUExampleScenario.node[39].veinsmobility 	totalTime 	275.4
scalar RSUExampleScenario.node[39].veinsmobility 	stopTime 	392.6
scalar RSUExampleScenario.node[39].veinsmobility 	minSpeed 	0.25832203278411
scalar RSUExampleScenario.node[39].veinsmobility 	maxSpeed 	13.9998763206
scalar RSUExampleScenario.node[39].veinsmobility 	totalDistance 	3409.5041292296
scalar RSUExampleScenario.node[39].veinsmobility 	totalCO2Emission 	699.32992063289
scalar RSUExampleScenario.node[40].veinsmobility 	startTime 	120.1
scalar RSUExampleScenario.node[40].veinsmobility 	totalTime 	276.1
scalar RSUExampleScenario.node[40].veinsmobility 	stopTime 	396.3
scalar RSUExampleScenario.node[40].veinsmobility 	minSpeed 	0.24834113964229
scalar RSUExampleScenario.node[40].veinsmobility 	maxSpeed 	13.999883753175
scalar RSUExampleScenario.node[40].veinsmobility 	totalDistance 	3413.5783955297
scalar RSUExampleScenario.node[40].veinsmobility 	totalCO2Emission 	700.57151986145
scalar RSUExampleScenario.node[41].veinsmobility 	startTime 	123.1
scalar RSUExampleScenario.node[41].veinsmobility 	totalTime 	276.8
scalar RSUExampleScenario.node[41].veinsmobility 	stopTime 	400
scalar RSUExampleScenario.node[41].veinsmobility 	minSpeed 	0.2483276007399
scalar RSUExampleScenario.node[41].veinsmobility 	maxSpeed 	13.99995485727
scalar RSUExampleScenario.node[41].veinsmobility 	totalDistance 	3410.0683072627
scalar RSUExampleScenario.node[41].veinsmobility 	totalCO2Emission 	700.2427132005
scalar RSUExampleScenario.node[42].veinsmobility 	startTime 	126.1
scalar RSUExampleScenario.node[42].veinsmobility 	totalTime 	277.6
scalar RSUExampleScenario.node[42].veinsmobility 	stopTime 	403.8
scalar RSUExampleScenario.node[42].veinsmobility 	minSpeed 	0.25571836901177
scalar RSUExampleScenario.node[42].veinsmobility 	maxSpeed 	13.999619886791
scalar RSUExampleScenario.node[42].veinsmobility 	totalDistance 	3414.2314165022
scalar RSUExampleScenario.node[42].veinsmobility 	totalCO2Emission 	698.94212119705
scalar RSUExampleScenario.node[43].veinsmobility 	startTime 	129.1
scalar RSUExampleScenario.node[43].veinsmobility 	totalTime 	278.3
scalar RSUExampleScenario.node[43].veinsmobility 	stopTime 	407.5
scalar RSUExampleScenario.node[43].veinsmobility 	minSpeed 	0.25309087100625
scalar RSUExampleScenario.node[43].veinsmobility 	maxSpeed 	13.999953599635
scalar RSUExampleScenario.node[43].veinsmobility 	totalDistance 	3409.6095134532
scalar RSUExampleScenario.node[43].veinsmobility 	totalCO2Emission 	700.53986258213
scalar RSUExampleScenario.node[44].veinsmobility 	startTime 	132.1
scalar RSUExampleScenario.node[44].veinsmobility 	totalTime 	279
scalar RSUExampleScenario.node[44].veinsmobility 	stopTime 	411.2
scalar RSUExampleScenario.node[44].veinsmobility 	minSpeed 	0.25258255584887
scalar RSUExampleScenario.node[44].veinsmobility 	maxSpeed 	13.999971308464
scalar RSUExampleScenario.node[44].veinsmobility 	totalDistance 	3414.1260409125
scalar RSUExampleScenario.node[44].veinsmobility 	totalCO2Emission 	700.6631332459
scalar RSUExampleScenario.node[45].veinsmobility 	startTime 	135.1
scalar RSUExampleScenario.node[45].veinsmobility 	totalTime 	279.7
scalar RSUExampleScenario.node[45].veinsmobility 	stopTime 	414.9
scalar RSUExampleScenario.node[45].veinsmobility 	minSpeed 	0.25177280567703
scalar RSUExampleScenario.node[45].veinsmobility 	maxSpeed 	13.999928294178
scalar RSUExampleScenario.node[45].veinsmobility 	totalDistance 	3409.7710063005
scalar RSUExampleScenario.node[45].veinsmobility 	totalCO2Emission 	701.27504953232
scalar RSUExampleScenario.node[46].veinsmobility 	startTime 	138.1
scalar RSUExampleScenario.node[46].veinsmobility 	totalTime 	280.5
scalar RSUExampleScenario.node[46].veinsmobility 	stopTime 	418.7
scalar RSUExampleScenario.node[46].veinsmobility 	minSpeed 	0.25797880470334
scalar RSUExampleScenario.node[46].veinsmobility 	maxSpeed 	13.999944559194
scalar RSUExampleScenario.node[46].veinsmobility 	totalDistance 	3413.8607352266
scalar RSUExampleScenario.node[46].veinsmobility 	totalCO2Emission 	699.94610448347
scalar RSUExampleScenario.node[47].veinsmobility 	startTime 	141.1
scalar RSUExampleScenario.node[47].veinsmobility 	totalTime 	281.2
scalar RSUExampleScenario.node[47].veinsmobility 	stopTime 	422.4
scalar RSUExampleScenario.node[47].veinsmobility 	minSpeed 	0.25649042040692
scalar RSUExampleScenario.node[47].veinsmobility 	maxSpeed 	13.999886790204
scalar RSUExampleScenario.node[47].veinsmobility 	totalDistance 	3410.1368001911
scalar RSUExampleScenario.node[47].veinsmobility 	totalCO2Emission 	701.66675442193
scalar RSUExampleScenario.node[48].veinsmobility 	startTime 	144.1
scalar RSUExampleScenario.node[48].veinsmobility 	totalTime 	281.9
scalar RSUExampleScenario.node[48].veinsmobility 	stopTime 	426.1
scalar RSUExampleScenario.node[48].veinsmobility 	minSpeed 	0.2505162495852
scalar RSUExampleScenario.node[48].veinsmobility 	maxSpeed 	13.999826915502
scalar RSUExampleScenario.node[48].veinsmobility 	totalDistance 	3414.2246546408
scalar RSUExampleScenario.node[48].veinsmobility 	totalCO2Emission 	704.8580474262
scalar RSUExampleScenario.node[49].veinsmobility 	startTime 	147.1
scalar RSUExampleScenario.node[49].veinsmobility 	totalTime 	282.6
scalar RSUExampleScenario.node[49].veinsmobility 	stopTime 	429.8
scalar RSUExampleScenario.node[49].veinsmobility 	minSpeed 	0.25392487427476
scalar RSUExampleScenario.node[49].veinsmobility 	maxSpeed 	13.999938075307
scalar RSUExampleScenario.node[49].veinsmobility 	totalDistance 	3409.859482876
scalar RSUExampleScenario.node[49].veinsmobility 	totalCO2Emission 	705.02569201827
scalar RSUExampleScenario.node[50].veinsmobility 	startTime 	150.1
scalar RSUExampleScenario.node[50].veinsmobility 	totalTime 	283.3
scalar RSUExampleScenario.node[50].veinsmobility 	stopTime 	433.5
scalar RSUExampleScenario.node[50].veinsmobility 	minSpeed 	0.25268907217961
scalar RSUExampleScenario.node[50].veinsmobility 	maxSpeed 	13.999949754209
scalar RSUExampleScenario.node[50].veinsmobility 	totalDistance 	3414.279761312
scalar RSUExampleScenario.node[50].veinsmobility 	totalCO2Emission 	703.71524705857
scalar RSUExampleScenario.node[51].veinsmobility 	startTime 	153.1
scalar RSUExampleScenario.node[51].veinsmobility 	totalTime 	284.1
scalar RSUExampleScenario.node[51].veinsmobility 	stopTime 	437.3
scalar RSUExampleScenario.node[51].veinsmobility 	minSpeed 	0.2515665565338
scalar RSUExampleScenario.node[51].veinsmobility 	maxSpeed 	13.999997543511
scalar RSUExampleScenario.node[51].veinsmobility 	totalDistance 	3409.6732621826
scalar RSUExampleScenario.node[51].veinsmobility 	totalCO2Emission 	709.62613092867
scalar RSUExampleScenario.node[52].veinsmobility 	startTime 	156.1
scalar RSUExampleScenario.node[52].veinsmobility 	totalTime 	284.9
scalar RSUExampleScenario.node[52].veinsmobility 	stopTime 	441.1
scalar RSUExampleScenario.node[52].veinsmobility 	minSpeed 	0.2527872221279
scalar RSUExampleScenario.node[52].veinsmobility 	maxSpeed 	13.999940979339
scalar RSUExampleScenario.node[52].veinsmobility 	totalDistance 	3413.8613118516
scalar RSUExampleScenario.node[52].veinsmobility 	totalCO2Emission 	705.49899702007
scalar RSUExampleScenario.node[53].veinsmobility 	startTime 	159.1
scalar RSUExampleScenario.node[53].veinsmobility 	totalTime 	285.6
scalar RSUExampleScenario.node[53].veinsmobility 	stopTime 	444.8
scalar RSUExampleScenario.node[53].veinsmobility 	minSpeed 	0.24965258836001
scalar RSUExampleScenario.node[53].veinsmobility 	maxSpeed 	13.999943045431
scalar RSUExampleScenario.node[53].veinsmobility 	totalDistance 	3409.9975142512
scalar RSUExampleScenario.node[53].veinsmobility 	totalCO2Emission 	706.58840225363
scalar RSUExampleScenario.node[54].veinsmobility 	startTime 	162.1
scalar RSUExampleScenario.node[54].veinsmobility 	totalTime 	286.3
scalar RSUExampleScenario.node[54].veinsmobility 	stopTime 	448.5
scalar RSUExampleScenario.node[54].veinsmobility 	minSpeed 	0.2582533663006
scalar RSUExampleScenario.node[54].veinsmobility 	maxSpeed 	13.999998061971
scalar RSUExampleScenario.node[54].veinsmobility 	totalDistance 	3413.9135760718
scalar RSUExampleScenario.node[54].veinsmobility 	totalCO2Emission 	709.9656014259
scalar RSUExampleScenario.node[55].veinsmobility 	startTime 	165.1
scalar RSUExampleScenario.node[55].veinsmobility 	totalTime 	286.9
scalar RSUExampleScenario.node[55].veinsmobility 	stopTime 	452.1
scalar RSUExampleScenario.node[55].veinsmobility 	minSpeed 	0.25778890157281
scalar RSUExampleScenario.node[55].veinsmobility 	maxSpeed 	13.999899387285
scalar RSUExampleScenario.node[55].veinsmobility 	totalDistance 	3409.7719981653
scalar RSUExampleScenario.node[55].veinsmobility 	totalCO2Emission 	706.83550819128
scalar RSUExampleScenario.node[56].veinsmobility 	startTime 	168.1
scalar RSUExampleScenario.node[56].veinsmobility 	totalTime 	287.6
scalar RSUExampleScenario.node[56].veinsmobility 	stopTime 	455.8
scalar RSUExampleScenario.node[56].veinsmobility 	minSpeed 	0.24762750451127
scalar RSUExampleScenario.node[56].veinsmobility 	maxSpeed 	13.99997051175
scalar RSUExampleScenario.node[56].veinsmobility 	totalDistance 	3413.7479667832
scalar RSUExampleScenario.node[56].veinsmobility 	totalCO2Emission 	706.46178151029
scalar RSUExampleScenario.node[57].veinsmobility 	startTime 	171.1
scalar RSUExampleScenario.node[57].veinsmobility 	totalTime 	288.3
scalar RSUExampleScenario.node[57].veinsmobility 	stopTime 	459.5
scalar RSUExampleScenario.node[57].veinsmobility 	minSpeed 	0.25095569534553
scalar RSUExampleScenario.node[57].veinsmobility 	maxSpeed 	13.999985173077
scalar RSUExampleScenario.node[57].veinsmobility 	totalDistance 	3409.6920145604
scalar RSUExampleScenario.node[57].veinsmobility 	totalCO2Emission 	709.77829520727
scalar RSUExampleScenario.node[58].veinsmobility 	startTime 	174.1
scalar RSUExampleScenario.node[58].veinsmobility 	totalTime 	289
scalar RSUExampleScenario.node[58].veinsmobility 	stopTime 	463.2
scalar RSUExampleScenario.node[58].veinsmobility 	minSpeed 	0.2532786788235
scalar RSUExampleScenario.node[58].veinsmobility 	maxSpeed 	13.999979354481
scalar RSUExampleScenario.node[58].veinsmobility 	totalDistance 	3414.1053526261
scalar RSUExampleScenario.node[58].veinsmobility 	totalCO2Emission 	713.77053076021
scalar RSUExampleScenario.node[59].veinsmobility 	startTime 	177.1
scalar RSUExampleScenario.node[59].veinsmobility 	totalTime 	289.7
scalar RSUExampleScenario.node[59].veinsmobility 	stopTime 	466.9
scalar RSUExampleScenario.node[59].veinsmobility 	minSpeed 	0.25761333897104
scalar RSUExampleScenario.node[59].veinsmobility 	maxSpeed 	13.999923992462
scalar RSUExampleScenario.node[59].veinsmobility 	totalDistance 	3409.9628620947
scalar RSUExampleScenario.node[59].veinsmobility 	totalCO2Emission 	711.20528649329
scalar RSUExampleScenario.node[60].veinsmobility 	startTime 	180.1
scalar RSUExampleScenario.node[60].veinsmobility 	totalTime 	290.4
scalar RSUExampleScenario.node[60].veinsmobility 	stopTime 	470.6
scalar RSUExampleScenario.node[60].veinsmobility 	minSpeed 	0.25018689671438
scalar RSUExampleScenario.node[60].veinsmobility 	maxSpeed 	13.999948251646
scalar RSUExampleScenario.node[60].veinsmobility 	totalDistance 	3409.6277124606
scalar RSUExampleScenario.node[60].veinsmobility 	totalCO2Emission 	710.20223978672
scalar RSUExampleScenario.node[61].veinsmobility 	startTime 	183.1
scalar RSUExampleScenario.node[61].veinsmobility 	totalTime 	291.2
scalar RSUExampleScenario.node[61].veinsmobility 	stopTime 	474.4
scalar RSUExampleScenario.node[61].veinsmobility 	minSpeed 	0.24835651236074
scalar RSUExampleScenario.node[61].veinsmobility 	maxSpeed 	13.999985789817
scalar RSUExampleScenario.node[61].veinsmobility 	totalDistance 	3414.2501661293
scalar RSUExampleScenario.node[61].veinsmobility 	totalCO2Emission 	713.29530400455
scalar RSUExampleScenario.node[62].veinsmobility 	startTime 	186.1
scalar RSUExampleScenario.node[62].veinsmobility 	totalTime 	291.9
scalar RSUExampleScenario.node[62].veinsmobility 	stopTime 	478.1
scalar RSUExampleScenario.node[62].veinsmobility 	minSpeed 	0.25147387468442
scalar RSUExampleScenario.node[62].veinsmobility 	maxSpeed 	13.999995480687
scalar RSUExampleScenario.node[62].veinsmobility 	totalDistance 	3409.810368516
scalar RSUExampleScenario.node[62].veinsmobility 	totalCO2Emission 	712.74313575321
scalar RSUExampleScenario.node[63].veinsmobility 	startTime 	189.1
scalar RSUExampleScenario.node[63].veinsmobility 	totalTime 	292.6
scalar RSUExampleScenario.node[63].veinsmobility 	stopTime 	481.8
scalar RSUExampleScenario.node[63].veinsmobility 	minSpeed 	0.25032507824735
scalar RSUExampleScenario.node[63].veinsmobility 	maxSpeed 	13.999899382049
scalar RSUExampleScenario.node[63].veinsmobility 	totalDistance 	3414.2155077801
scalar RSUExampleScenario.node[63].veinsmobility 	totalCO2Emission 	715.82683464548
scalar RSUExampleScenario.node[64].veinsmobility 	startTime 	192.1
scalar RSUExampleScenario.node[64].veinsmobility 	totalTime 	293.4
scalar RSUExampleScenario.node[64].veinsmobility 	stopTime 	485.6
scalar RSUExampleScenario.node[64].veinsmobility 	minSpeed 	0.2482232944956
scalar RSUExampleScenario.node[64].veinsmobility 	maxSpeed 	13.99997538314
scalar RSUExampleScenario.node[64].veinsmobility 	totalDistance 	3409.9846737838
scalar RSUExampleScenario.node[64].veinsmobility 	totalCO2Emission 	716.44468319664
scalar RSUExampleScenario.node[65].veinsmobility 	startTime 	195.1
scalar RSUExampleScenario.node[65].veinsmobility 	totalTime 	294.1
scalar RSUExampleScenario.node[65].veinsmobility 	stopTime 	489.3
scalar RSUExampleScenario.node[65].veinsmobility 	minSpeed 	0.25756149163726
scalar RSUExampleScenario.node[65].veinsmobility 	maxSpeed 	13.999651164364
scalar RSUExampleScenario.node[65].veinsmobility 	totalDistance 	3414.0221922502
scalar RSUExampleScenario.node[65].veinsmobility 	totalCO2Emission 	717.36643701494
scalar RSUExampleScenario.node[66].veinsmobility 	startTime 	198.1
scalar RSUExampleScenario.node[66].veinsmobility 	totalTime 	294.7
scalar RSUExampleScenario.node[66].veinsmobility 	stopTime 	492.9
scalar RSUExampleScenario.node[66].veinsmobility 	minSpeed 	0.25416444100998
scalar RSUExampleScenario.node[66].veinsmobility 	maxSpeed 	13.999996630144
scalar RSUExampleScenario.node[66].veinsmobility 	totalDistance 	3409.5835273332
scalar RSUExampleScenario.node[66].veinsmobility 	totalCO2Emission 	714.72242822912
scalar RSUExampleScenario.node[67].veinsmobility 	startTime 	201.1
scalar RSUExampleScenario.node[67].veinsmobility 	totalTime 	295.4
scalar RSUExampleScenario.node[67].veinsmobility 	stopTime 	496.6
scalar RSUExampleScenario.node[67].veinsmobility 	minSpeed 	0.25739215286239
scalar RSUExampleScenario.node[67].veinsmobility 	maxSpeed 	13.999942137876
scalar RSUExampleScenario.node[67].veinsmobility 	totalDistance 	3413.8536138467
scalar RSUExampleScenario.node[67].veinsmobility 	totalCO2Emission 	713.07054937689
scalar RSUExampleScenario.node[68].veinsmobility 	startTime 	204.1
scalar RSUExampleScenario.node[68].veinsmobility 	totalTime 	296.1
scalar RSUExampleScenario.node[68].veinsmobility 	stopTime 	500.3
scalar RSUExampleScenario.node[68].veinsmobility 	minSpeed 	0.24727570112632
scalar RSUExampleScenario.node[68].veinsmobility 	maxSpeed 	13.999995219687
scalar RSUExampleScenario.node[68].veinsmobility 	totalDistance 	3409.8423779072
scalar RSUExampleScenario.node[68].veinsmobility 	totalCO2Emission 	719.72839483942
scalar RSUExampleScenario.node[69].veinsmobility 	startTime 	207.1
scalar RSUExampleScenario.node[69].veinsmobility 	totalTime 	296.9
scalar RSUExampleScenario.node[69].veinsmobility 	stopTime 	504.1
scalar RSUExampleScenario.node[69].veinsmobility 	minSpeed 	0.247959572169
scalar RSUExampleScenario.node[69].veinsmobility 	maxSpeed 	13.999954621876
scalar RSUExampleScenario.node[69].veinsmobility 	totalDistance 	3414.2207580533
scalar RSUExampleScenario.node[69].veinsmobility 	totalCO2Emission 	721.55481715123
scalar RSUExampleScenario.node[70].veinsmobility 	startTime 	210.1
scalar RSUExampleScenario.node[70].veinsmobility 	totalTime 	297.7
scalar RSUExampleScenario.node[70].veinsmobility 	stopTime 	507.9
scalar RSUExampleScenario.node[70].veinsmobility 	minSpeed 	0.25749205223355
scalar RSUExampleScenario.node[70].veinsmobility 	maxSpeed 	13.999978447137
scalar RSUExampleScenario.node[70].veinsmobility 	totalDistance 	3410.0584429848
scalar RSUExampleScenario.node[70].veinsmobility 	totalCO2Emission 	718.29025221539
scalar RSUExampleScenario.node[71].veinsmobility 	startTime 	213.1
scalar RSUExampleScenario.node[71].veinsmobility 	totalTime 	298.3
scalar RSUExampleScenario.node[71].veinsmobility 	stopTime 	511.5
scalar RSUExampleScenario.node[71].veinsmobility 	minSpeed 	0.24873978781095
scalar RSUExampleScenario.node[71].veinsmobility 	maxSpeed 	13.999627931144
scalar RSUExampleScenario.node[71].veinsmobility 	totalDistance 	3409.7306811058
scalar RSUExampleScenario.node[71].veinsmobility 	totalCO2Emission 	720.88406340975
scalar RSUExampleScenario.node[72].veinsmobility 	startTime 	216.1
scalar RSUExampleScenario.node[72].veinsmobility 	totalTime 	298.9
scalar RSUExampleScenario.node[72].veinsmobility 	stopTime 	515.1
scalar RSUExampleScenario.node[72].veinsmobility 	minSpeed 	0.25646587080206
scalar RSUExampleScenario.node[72].veinsmobility 	maxSpeed 	13.999923918154
scalar RSUExampleScenario.node[72].veinsmobility 	totalDistance 	3413.6669620147
scalar RSUExampleScenario.node[72].veinsmobility 	totalCO2Emission 	724.52374260587
scalar RSUExampleScenario.node[73].veinsmobility 	startTime 	219.1
scalar RSUExampleScenario.node[73].veinsmobility 	totalTime 	299.6
scalar RSUExampleScenario.node[73].veinsmobility 	stopTime 	518.8
scalar RSUExampleScenario.node[73].veinsmobility 	minSpeed 	0.25405934150843
scalar RSUExampleScenario.node[73].veinsmobility 	maxSpeed 	13.999823289518
scalar RSUExampleScenario.node[73].veinsmobility 	totalDistance 	3409.5303984133
scalar RSUExampleScenario.node[73].veinsmobility 	totalCO2Emission 	719.5512246247
scalar RSUExampleScenario.node[74].veinsmobility 	startTime 	222.1
scalar RSUExampleScenario.node[74].veinsmobility 	totalTime 	300.4
scalar RSUExampleScenario.node[74].veinsmobility 	stopTime 	522.6
scalar RSUExampleScenario.node[74].veinsmobility 	minSpeed 	0.24716109363991
scalar RSUExampleScenario.node[74].veinsmobility 	maxSpeed 	13.999961507691
scalar RSUExampleScenario.node[74].veinsmobility 	totalDistance 	3414.1907791316
scalar RSUExampleScenario.node[74].veinsmobility 	totalCO2Emission 	721.03216986118
scalar RSUExampleScenario.node[75].veinsmobility 	startTime 	225.1
scalar RSUExampleScenario.node[75].veinsmobility 	totalTime 	301.2
scalar RSUExampleScenario.node[75].veinsmobility 	stopTime 	526.4
scalar RSUExampleScenario.node[75].veinsmobility 	minSpeed 	0.25914103958034
scalar RSUExampleScenario.node[75].veinsmobility 	maxSpeed 	13.999954710985
scalar RSUExampleScenario.node[75].veinsmobility 	totalDistance 	3410.0464337167
scalar RSUExampleScenario.node[75].veinsmobility 	totalCO2Emission 	722.9688935385
scalar RSUExampleScenario.node[76].veinsmobility 	startTime 	228.1
scalar RSUExampleScenario.node[76].veinsmobility 	totalTime 	301.9
scalar RSUExampleScenario.node[76].veinsmobility 	stopTime 	530.1
scalar RSUExampleScenario.node[76].veinsmobility 	minSpeed 	0.25755583156366
scalar RSUExampleScenario.node[76].veinsmobility 	maxSpeed 	13.999832443555
scalar RSUExampleScenario.node[76].veinsmobility 	totalDistance 	3414.244557994
scalar RSUExampleScenario.node[76].veinsmobility 	totalCO2Emission 	724.71549704226
scalar RSUExampleScenario.node[77].veinsmobility 	startTime 	231.1
scalar RSUExampleScenario.node[77].veinsmobility 	totalTime 	302.6
scalar RSUExampleScenario.node[77].veinsmobility 	stopTime 	533.8
scalar RSUExampleScenario.node[77].veinsmobility 	minSpeed 	0.24756314114528
scalar RSUExampleScenario.node[77].veinsmobility 	maxSpeed 	13.999992138799
scalar RSUExampleScenario.node[77].veinsmobility 	totalDistance 	3410.1442639392
scalar RSUExampleScenario.node[77].veinsmobility 	totalCO2Emission 	726.24301572737
scalar RSUExampleScenario.node[78].veinsmobility 	startTime 	234.1
scalar RSUExampleScenario.node[78].veinsmobility 	totalTime 	303.4
scalar RSUExampleScenario.node[78].veinsmobility 	stopTime 	537.6
scalar RSUExampleScenario.node[78].veinsmobility 	minSpeed 	0.25110801904299
scalar RSUExampleScenario.node[78].veinsmobility 	maxSpeed 	13.999910700731
scalar RSUExampleScenario.node[78].veinsmobility 	totalDistance 	3414.11726337
scalar RSUExampleScenario.node[78].veinsmobility 	totalCO2Emission 	722.81414716545
scalar RSUExampleScenario.node[79].veinsmobility 	startTime 	237.1
scalar RSUExampleScenario.node[79].veinsmobility 	totalTime 	304.1
scalar RSUExampleScenario.node[79].veinsmobility 	stopTime 	541.3
scalar RSUExampleScenario.node[79].veinsmobility 	minSpeed 	0.25279702769849
scalar RSUExampleScenario.node[79].veinsmobility 	maxSpeed 	13.999993083675
scalar RSUExampleScenario.node[79].veinsmobility 	totalDistance 	3409.6128905402
scalar RSUExampleScenario.node[79].veinsmobility 	totalCO2Emission 	722.73502732231
scalar RSUExampleScenario.node[80].veinsmobility 	startTime 	240.1
scalar RSUExampleScenario.node[80].veinsmobility 	totalTime 	304.8
scalar RSUExampleScenario.node[80].veinsmobility 	stopTime 	545
scalar RSUExampleScenario.node[80].veinsmobility 	minSpeed 	0.24977098518913
scalar RSUExampleScenario.node[80].veinsmobility 	maxSpeed 	13.999872371324
scalar RSUExampleScenario.node[80].veinsmobility 	totalDistance 	3413.7596595696
scalar RSUExampleScenario.node[80].veinsmobility 	totalCO2Emission 	729.99804072467
scalar RSUExampleScenario.node[81].veinsmobility 	startTime 	243.1
scalar RSUExampleScenario.node[81].veinsmobility 	totalTime 	305.5
scalar RSUExampleScenario.node[81].veinsmobility 	stopTime 	548.7
scalar RSUExampleScenario.node[81].veinsmobility 	minSpeed 	0.24958102581464
scalar RSUExampleScenario.node[81].veinsmobility 	maxSpeed 	13.999940689947
scalar RSUExampleScenario.node[81].veinsmobility 	totalDistance 	3410.1617996296
scalar RSUExampleScenario.node[81].veinsmobility 	totalCO2Emission 	727.6719413957
scalar RSUExampleScenario.node[82].veinsmobility 	startTime 	246.1
scalar RSUExampleScenario.node[82].veinsmobility 	totalTime 	306.2
scalar RSUExampleScenario.node[82].veinsmobility 	stopTime 	552.4
scalar RSUExampleScenario.node[82].veinsmobility 	minSpeed 	0.25068466840708
scalar RSUExampleScenario.node[82].veinsmobility 	maxSpeed 	13.999843630269
scalar RSUExampleScenario.node[82].veinsmobility 	totalDistance 	3413.6728882489
scalar RSUExampleScenario.node[82].veinsmobility 	totalCO2Emission 	728.14038852712
scalar RSUExampleScenario.node[83].veinsmobility 	startTime 	249.1
scalar RSUExampleScenario.node[83].veinsmobility 	totalTime 	306.9
scalar RSUExampleScenario.node[83].veinsmobility 	stopTime 	556.1
scalar RSUExampleScenario.node[83].veinsmobility 	minSpeed 	0.25561439701077
scalar RSUExampleScenario.node[83].veinsmobility 	maxSpeed 	13.9999867152
scalar RSUExampleScenario.node[83].veinsmobility 	totalDistance 	3409.6887018247
scalar RSUExampleScenario.node[83].veinsmobility 	totalCO2Emission 	730.77856783373
scalar RSUExampleScenario.node[84].veinsmobility 	startTime 	252.1
scalar RSUExampleScenario.node[84].veinsmobility 	totalTime 	307.6
scalar RSUExampleScenario.node[84].veinsmobility 	stopTime 	559.8
scalar RSUExampleScenario.node[84].veinsmobility 	minSpeed 	0.25540240421495
scalar RSUExampleScenario.node[84].veinsmobility 	maxSpeed 	13.999999202378
scalar RSUExampleScenario.node[84].veinsmobility 	totalDistance 	3413.5547382649
scalar RSUExampleScenario.node[84].veinsmobility 	totalCO2Emission 	729.17867288039
scalar RSUExampleScenario.node[85].veinsmobility 	startTime 	255.1
scalar RSUExampleScenario.node[85].veinsmobility 	totalTime 	308.3
scalar RSUExampleScenario.node[85].veinsmobility 	stopTime 	563.5
scalar RSUExampleScenario.node[85].veinsmobility 	minSpeed 	0.25573065995611
scalar RSUExampleScenario.node[85].veinsmobility 	maxSpeed 	13.999949365023
scalar RSUExampleScenario.node[85].veinsmobility 	totalDistance 	3409.7849890028
scalar RSUExampleScenario.node[85].veinsmobility 	totalCO2Emission 	729.05330769084
scalar RSUExampleScenario.node[86].veinsmobility 	startTime 	258.1
scalar RSUExampleScenario.node[86].veinsmobility 	totalTime 	309
scalar RSUExampleScenario.node[86].veinsmobility 	stopTime 	567.2
scalar RSUExampleScenario.node[86].veinsmobility 	minSpeed 	0.2590902307441
scalar RSUExampleScenario.node[86].veinsmobility 	maxSpeed 	13.999975284133
scalar RSUExampleScenario.node[86].veinsmobility 	totalDistance 	3413.7135005434
scalar RSUExampleScenario.node[86].veinsmobility 	totalCO2Emission 	729.8925533701
scalar RSUExampleScenario.node[87].veinsmobility 	startTime 	261.1
scalar RSUExampleScenario.node[87].veinsmobility 	totalTime 	309.7
scalar RSUExampleScenario.node[87].veinsmobility 	stopTime 	570.9
scalar RSUExampleScenario.node[87].veinsmobility 	minSpeed 	0.25826455217903
scalar RSUExampleScenario.node[87].veinsmobility 	maxSpeed 	13.999983092153
scalar RSUExampleScenario.node[87].veinsmobility 	totalDistance 	3409.5879650971
scalar RSUExampleScenario.node[87].veinsmobility 	totalCO2Emission 	733.18510650918
scalar RSUExampleScenario.node[88].veinsmobility 	startTime 	264.1
scalar RSUExampleScenario.node[88].veinsmobility 	totalTime 	310.4
scalar RSUExampleScenario.node[88].veinsmobility 	stopTime 	574.6
scalar RSUExampleScenario.node[88].veinsmobility 	minSpeed 	0.25284579229564
scalar RSUExampleScenario.node[88].veinsmobility 	maxSpeed 	13.999998762917
scalar RSUExampleScenario.node[88].veinsmobility 	totalDistance 	3414.1712896346
scalar RSUExampleScenario.node[88].veinsmobility 	totalCO2Emission 	733.29063125604
scalar RSUExampleScenario.node[89].veinsmobility 	startTime 	267.1
scalar RSUExampleScenario.node[89].veinsmobility 	totalTime 	311
scalar RSUExampleScenario.node[89].veinsmobility 	stopTime 	578.2
scalar RSUExampleScenario.node[89].veinsmobility 	minSpeed 	0.24813538183621
scalar RSUExampleScenario.node[89].veinsmobility 	maxSpeed 	13.999997577956
scalar RSUExampleScenario.node[89].veinsmobility 	totalDistance 	3409.6795327053
scalar RSUExampleScenario.node[89].veinsmobility 	totalCO2Emission 	732.2134870336
scalar RSUExampleScenario.node[90].veinsmobility 	startTime 	270.1
scalar RSUExampleScenario.node[90].veinsmobility 	totalTime 	311.6
scalar RSUExampleScenario.node[90].veinsmobility 	stopTime 	581.8
scalar RSUExampleScenario.node[90].veinsmobility 	minSpeed 	0.25356527677202
scalar RSUExampleScenario.node[90].veinsmobility 	maxSpeed 	13.99983739906
scalar RSUExampleScenario.node[90].veinsmobility 	totalDistance 	3413.7319267427
scalar RSUExampleScenario.node[90].veinsmobility 	totalCO2Emission 	737.65592530082
scalar RSUExampleScenario.node[91].veinsmobility 	startTime 	273.1
scalar RSUExampleScenario.node[91].veinsmobility 	totalTime 	312.3
scalar RSUExampleScenario.node[91].veinsmobility 	stopTime 	585.5
scalar RSUExampleScenario.node[91].veinsmobility 	minSpeed 	0.24991800255794
scalar RSUExampleScenario.node[91].veinsmobility 	maxSpeed 	13.999921638763
scalar RSUExampleScenario.node[91].veinsmobility 	totalDistance 	3410.0698570518
scalar RSUExampleScenario.node[91].veinsmobility 	totalCO2Emission 	736.05651287525
scalar RSUExampleScenario.node[92].veinsmobility 	startTime 	276.1
scalar RSUExampleScenario.node[92].veinsmobility 	totalTime 	313
scalar RSUExampleScenario.node[92].veinsmobility 	stopTime 	589.2
scalar RSUExampleScenario.node[92].veinsmobility 	minSpeed 	0.25316954579833
scalar RSUExampleScenario.node[92].veinsmobility 	maxSpeed 	13.999809611144
scalar RSUExampleScenario.node[92].veinsmobility 	totalDistance 	3413.8007114508
scalar RSUExampleScenario.node[92].veinsmobility 	totalCO2Emission 	735.78493695302
scalar RSUExampleScenario.node[93].veinsmobility 	startTime 	279.1
scalar RSUExampleScenario.node[93].veinsmobility 	totalTime 	313.6
scalar RSUExampleScenario.node[93].veinsmobility 	stopTime 	592.8
scalar RSUExampleScenario.node[93].veinsmobility 	minSpeed 	0.24837381101586
scalar RSUExampleScenario.node[93].veinsmobility 	maxSpeed 	13.999962622612
scalar RSUExampleScenario.node[93].veinsmobility 	totalDistance 	3409.6480083542
scalar RSUExampleScenario.node[93].veinsmobility 	totalCO2Emission 	730.98879868392
scalar RSUExampleScenario.node[94].veinsmobility 	startTime 	282.1
scalar RSUExampleScenario.node[94].veinsmobility 	totalTime 	314.4
scalar RSUExampleScenario.node[94].veinsmobility 	stopTime 	596.6
scalar RSUExampleScenario.node[94].veinsmobility 	minSpeed 	0.25096003101021
scalar RSUExampleScenario.node[94].veinsmobility 	maxSpeed 	13.999809742325
scalar RSUExampleScenario.node[94].veinsmobility 	totalDistance 	3414.2908736829
scalar RSUExampleScenario.node[94].veinsmobility 	totalCO2Emission 	738.92686647224
scalar RSUExampleScenario.node[95].veinsmobility 	startTime 	285.1
scalar RSUExampleScenario.node[95].veinsmobility 	totalTime 	315.1
scalar RSUExampleScenario.node[95].veinsmobility 	stopTime 	600.3
scalar RSUExampleScenario.node[95].veinsmobility 	minSpeed 	0.25586311138142
scalar RSUExampleScenario.node[95].veinsmobility 	maxSpeed 	13.999747693564
scalar RSUExampleScenario.node[95].veinsmobility 	totalDistance 	3409.5280746885
scalar RSUExampleScenario.node[95].veinsmobility 	totalCO2Emission 	738.27474351075
scalar RSUExampleScenario.node[96].veinsmobility 	startTime 	288.1
scalar RSUExampleScenario.node[96].veinsmobility 	totalTime 	315.8
scalar RSUExampleScenario.node[96].veinsmobility 	stopTime 	604
scalar RSUExampleScenario.node[96].veinsmobility 	minSpeed 	0.25423562485445
scalar RSUExampleScenario.node[96].veinsmobility 	maxSpeed 	13.999815480711
scalar RSUExampleScenario.node[96].veinsmobility 	totalDistance 	3414.1106596193
scalar RSUExampleScenario.node[96].veinsmobility 	totalCO2Emission 	732.12786134839
scalar RSUExampleScenario.node[97].veinsmobility 	startTime 	291.1
scalar RSUExampleScenario.node[97].veinsmobility 	totalTime 	316.5
scalar RSUExampleScenario.node[97].veinsmobility 	stopTime 	607.7
scalar RSUExampleScenario.node[97].veinsmobility 	minSpeed 	0.25057446994283
scalar RSUExampleScenario.node[97].veinsmobility 	maxSpeed 	13.999843963459
scalar RSUExampleScenario.node[97].veinsmobility 	totalDistance 	3409.7468921505
scalar RSUExampleScenario.node[97].veinsmobility 	totalCO2Emission 	739.61464421182
scalar RSUExampleScenario.node[98].veinsmobility 	startTime 	294.1
scalar RSUExampleScenario.node[98].veinsmobility 	totalTime 	317.3
scalar RSUExampleScenario.node[98].veinsmobility 	stopTime 	611.5
scalar RSUExampleScenario.node[98].veinsmobility 	minSpeed 	0.24730094687361
scalar RSUExampleScenario.node[98].veinsmobility 	maxSpeed 	13.999964604741
scalar RSUExampleScenario.node[98].veinsmobility 	totalDistance 	3414.3182394996
scalar RSUExampleScenario.node[98].veinsmobility 	totalCO2Emission 	742.03567540427
scalar RSUExampleScenario.node[99].veinsmobility 	startTime 	297.1
scalar RSUExampleScenario.node[99].veinsmobility 	totalTime 	318
scalar RSUExampleScenario.node[99].veinsmobility 	stopTime 	615.2
scalar RSUExampleScenario.node[99].veinsmobility 	minSpeed 	0.25717482240452
scalar RSUExampleScenario.node[99].veinsmobility 	maxSpeed 	13.999859333632
scalar RSUExampleScenario.node[99].veinsmobility 	totalDistance 	3409.711772414
scalar RSUExampleScenario.node[99].veinsmobility 	totalCO2Emission 	744.2160258322
scalar RSUExampleScenario.node[100].veinsmobility 	startTime 	300.1
scalar RSUExampleScenario.node[100].veinsmobility 	totalTime 	318.7
scalar RSUExampleScenario.node[100].veinsmobility 	stopTime 	618.9
scalar RSUExampleScenario.node[100].veinsmobility 	minSpeed 	0.25691469956166
scalar RSUExampleScenario.node[100].veinsmobility 	maxSpeed 	13.999947629094
scalar RSUExampleScenario.node[100].veinsmobility 	totalDistance 	3413.9681858335
scalar RSUExampleScenario.node[100].veinsmobility 	totalCO2Emission 	738.67631682275
scalar RSUExampleScenario.node[101].veinsmobility 	startTime 	303.1
scalar RSUExampleScenario.node[101].veinsmobility 	totalTime 	319.4
scalar RSUExampleScenario.node[101].veinsmobility 	stopTime 	622.6
scalar RSUExampleScenario.node[101].veinsmobility 	minSpeed 	0.25308740340616
scalar RSUExampleScenario.node[101].veinsmobility 	maxSpeed 	13.999889798418
scalar RSUExampleScenario.node[101].veinsmobility 	totalDistance 	3410.1338343477
scalar RSUExampleScenario.node[101].veinsmobility 	totalCO2Emission 	738.8773244594
scalar RSUExampleScenario.node[102].veinsmobility 	startTime 	306.1
scalar RSUExampleScenario.node[102].veinsmobility 	totalTime 	320.1
scalar RSUExampleScenario.node[102].veinsmobility 	stopTime 	626.3
scalar RSUExampleScenario.node[102].veinsmobility 	minSpeed 	0.25935280891368
scalar RSUExampleScenario.node[102].veinsmobility 	maxSpeed 	13.999980833586
scalar RSUExampleScenario.node[102].veinsmobility 	totalDistance 	3414.2007029957
scalar RSUExampleScenario.node[102].veinsmobility 	totalCO2Emission 	742.56027401352
scalar RSUExampleScenario.node[103].veinsmobility 	startTime 	309.1
scalar RSUExampleScenario.node[103].veinsmobility 	totalTime 	320.7
scalar RSUExampleScenario.node[103].veinsmobility 	stopTime 	629.9
scalar RSUExampleScenario.node[103].veinsmobility 	minSpeed 	0.2532441790821
scalar RSUExampleScenario.node[103].veinsmobility 	maxSpeed 	13.999792195188
scalar RSUExampleScenario.node[103].veinsmobility 	totalDistance 	3409.8548028167
scalar RSUExampleScenario.node[103].veinsmobility 	totalCO2Emission 	742.19806514839
scalar RSUExampleScenario.node[104].veinsmobility 	startTime 	312.1
scalar RSUExampleScenario.node[104].veinsmobility 	totalTime 	321.4
scalar RSUExampleScenario.node[104].veinsmobility 	stopTime 	633.6
scalar RSUExampleScenario.node[104].veinsmobility 	minSpeed 	0.25194636086677
scalar RSUExampleScenario.node[104].veinsmobility 	maxSpeed 	13.999941913318
scalar RSUExampleScenario.node[104].veinsmobility 	totalDistance 	3414.3474867407
scalar RSUExampleScenario.node[104].veinsmobility 	totalCO2Emission 	747.41704059669
scalar RSUExampleScenario.node[105].veinsmobility 	startTime 	315.1
scalar RSUExampleScenario.node[105].veinsmobility 	totalTime 	322
scalar RSUExampleScenario.node[105].veinsmobility 	stopTime 	637.2
scalar RSUExampleScenario.node[105].veinsmobility 	minSpeed 	0.24892347654304
scalar RSUExampleScenario.node[105].veinsmobility 	maxSpeed 	13.999986528417
scalar RSUExampleScenario.node[105].veinsmobility 	totalDistance 	3409.4251972603
scalar RSUExampleScenario.node[105].veinsmobility 	totalCO2Emission 	741.86353982953
scalar RSUExampleScenario.node[106].veinsmobility 	startTime 	318.1
scalar RSUExampleScenario.node[106].veinsmobility 	totalTime 	322.6
scalar RSUExampleScenario.node[106].veinsmobility 	stopTime 	640.8
scalar RSUExampleScenario.node[106].veinsmobility 	minSpeed 	0.25030240499717
scalar RSUExampleScenario.node[106].veinsmobility 	maxSpeed 	13.999976726221
scalar RSUExampleScenario.node[106].veinsmobility 	totalDistance 	3413.6399850514
scalar RSUExampleScenario.node[106].veinsmobility 	totalCO2Emission 	743.92336787212
scalar RSUExampleScenario.node[107].veinsmobility 	startTime 	321.1
scalar RSUExampleScenario.node[107].veinsmobility 	totalTime 	323.3
scalar RSUExampleScenario.node[107].veinsmobility 	stopTime 	644.5
scalar RSUExampleScenario.node[107].veinsmobility 	minSpeed 	0.24824651713087
scalar RSUExampleScenario.node[107].veinsmobility 	maxSpeed 	13.999995394212
scalar RSUExampleScenario.node[107].veinsmobility 	totalDistance 	3409.6556928512
scalar RSUExampleScenario.node[107].veinsmobility 	totalCO2Emission 	743.80968658403
scalar RSUExampleScenario.node[108].veinsmobility 	startTime 	324.1
scalar RSUExampleScenario.node[108].veinsmobility 	totalTime 	323.9
scalar RSUExampleScenario.node[108].veinsmobility 	stopTime 	648.1
scalar RSUExampleScenario.node[108].veinsmobility 	minSpeed 	0.24834430192923
scalar RSUExampleScenario.node[108].veinsmobility 	maxSpeed 	13.999951323967
scalar RSUExampleScenario.node[108].veinsmobility 	totalDistance 	3413.9018575683
scalar RSUExampleScenario.node[108].veinsmobility 	totalCO2Emission 	744.69894181374
scalar RSUExampleScenario.node[109].veinsmobility 	startTime 	327.1
scalar RSUExampleScenario.node[109].veinsmobility 	totalTime 	324.5
scalar RSUExampleScenario.node[109].veinsmobility 	stopTime 	651.7
scalar RSUExampleScenario.node[109].veinsmobility 	minSpeed 	0.25594318159111
scalar RSUExampleScenario.node[109].veinsmobility 	maxSpeed 	13.999991884094
scalar RSUExampleScenario.node[109].veinsmobility 	totalDistance 	3409.4545276071
scalar RSUExampleScenario.node[109].veinsmobility 	totalCO2Emission 	745.65411713133
scalar RSUExampleScenario.node[110].veinsmobility 	startTime 	330.1
scalar RSUExampleScenario.node[110].veinsmobility 	totalTime 	325.1
scalar RSUExampleScenario.node[110].veinsmobility 	stopTime 	655.3
scalar RSUExampleScenario.node[110].veinsmobility 	minSpeed 	0.25513221911993
scalar RSUExampleScenario.node[110].veinsmobility 	maxSpeed 	13.999975303111
scalar RSUExampleScenario.node[110].veinsmobility 	totalDistance 	3413.7951542043
scalar RSUExampleScenario.node[110].veinsmobility 	totalCO2Emission 	746.44029506333
scalar RSUExampleScenario.node[111].veinsmobility 	startTime 	333.1
scalar RSUExampleScenario.node[111].veinsmobility 	totalTime 	325.7
scalar RSUExampleScenario.node[111].veinsmobility 	stopTime 	658.9
scalar RSUExampleScenario.node[111].veinsmobility 	minSpeed 	0.25443075817451
scalar RSUExampleScenario.node[111].veinsmobility 	maxSpeed 	13.999926600261
scalar RSUExampleScenario.node[111].veinsmobility 	totalDistance 	3409.5400993346
scalar RSUExampleScenario.node[111].veinsmobility 	totalCO2Emission 	746.54432714641
scalar RSUExampleScenario.node[112].veinsmobility 	startTime 	336.1
scalar RSUExampleScenario.node[112].veinsmobility 	totalTime 	326.4
scalar RSUExampleScenario.node[112].veinsmobility 	stopTime 	662.6
scalar RSUExampleScenario.node[112].veinsmobility 	minSpeed 	0.25023059877031
scalar RSUExampleScenario.node[112].veinsmobility 	maxSpeed 	13.999987033105
scalar RSUExampleScenario.node[112].veinsmobility 	totalDistance 	3414.2312580742
scalar RSUExampleScenario.node[112].veinsmobility 	totalCO2Emission 	746.67515682304
scalar RSUExampleScenario.node[113].veinsmobility 	startTime 	339.1
scalar RSUExampleScenario.node[113].veinsmobility 	totalTime 	327.1
scalar RSUExampleScenario.node[113].veinsmobility 	stopTime 	666.3
scalar RSUExampleScenario.node[113].veinsmobility 	minSpeed 	0.25450471420004
scalar RSUExampleScenario.node[113].veinsmobility 	maxSpeed 	13.999997733261
scalar RSUExampleScenario.node[113].veinsmobility 	totalDistance 	3410.1660238444
scalar RSUExampleScenario.node[113].veinsmobility 	totalCO2Emission 	750.90910425173
scalar RSUExampleScenario.node[114].veinsmobility 	startTime 	342.1
scalar RSUExampleScenario.node[114].veinsmobility 	totalTime 	327.8
scalar RSUExampleScenario.node[114].veinsmobility 	stopTime 	670
scalar RSUExampleScenario.node[114].veinsmobility 	minSpeed 	0.25221681000758
scalar RSUExampleScenario.node[114].veinsmobility 	maxSpeed 	13.999954014034
scalar RSUExampleScenario.node[114].veinsmobility 	totalDistance 	3413.6407612948
scalar RSUExampleScenario.node[114].veinsmobility 	totalCO2Emission 	750.29063985006
scalar RSUExampleScenario.node[115].veinsmobility 	startTime 	345.1
scalar RSUExampleScenario.node[115].veinsmobility 	totalTime 	328.5
scalar RSUExampleScenario.node[115].veinsmobility 	stopTime 	673.7
scalar RSUExampleScenario.node[115].veinsmobility 	minSpeed 	0.25192205809127
scalar RSUExampleScenario.node[115].veinsmobility 	maxSpeed 	13.999976319056
scalar RSUExampleScenario.node[115].veinsmobility 	totalDistance 	3409.6628730081
scalar RSUExampleScenario.node[115].veinsmobility 	totalCO2Emission 	748.66891298375
scalar RSUExampleScenario.node[116].veinsmobility 	startTime 	348.1
scalar RSUExampleScenario.node[116].veinsmobility 	totalTime 	329.2
scalar RSUExampleScenario.node[116].veinsmobility 	stopTime 	677.4
scalar RSUExampleScenario.node[116].veinsmobility 	minSpeed 	0.2571504364647
scalar RSUExampleScenario.node[116].veinsmobility 	maxSpeed 	13.999949255181
scalar RSUExampleScenario.node[116].veinsmobility 	totalDistance 	3413.9742425023
scalar RSUExampleScenario.node[116].veinsmobility 	totalCO2Emission 	754.14769298497
scalar RSUExampleScenario.node[117].veinsmobility 	startTime 	351.1
scalar RSUExampleScenario.node[117].veinsmobility 	totalTime 	329.8
scalar RSUExampleScenario.node[117].veinsmobility 	stopTime 	681
scalar RSUExampleScenario.node[117].veinsmobility 	minSpeed 	0.24939244988072
scalar RSUExampleScenario.node[117].veinsmobility 	maxSpeed 	13.999950432666
scalar RSUExampleScenario.node[117].veinsmobility 	totalDistance 	3409.5695836432
scalar RSUExampleScenario.node[117].veinsmobility 	totalCO2Emission 	752.97538281162
scalar RSUExampleScenario.node[118].veinsmobility 	startTime 	354.1
scalar RSUExampleScenario.node[118].veinsmobility 	totalTime 	330.4
scalar RSUExampleScenario.node[118].veinsmobility 	stopTime 	684.6
scalar RSUExampleScenario.node[118].veinsmobility 	minSpeed 	0.25294587691897
scalar RSUExampleScenario.node[118].veinsmobility 	maxSpeed 	13.999987289566
scalar RSUExampleScenario.node[118].veinsmobility 	totalDistance 	3413.923005274
scalar RSUExampleScenario.node[118].veinsmobility 	totalCO2Emission 	751.77611158779
scalar RSUExampleScenario.node[119].veinsmobility 	startTime 	357.1
scalar RSUExampleScenario.node[119].veinsmobility 	totalTime 	331.1
scalar RSUExampleScenario.node[119].veinsmobility 	stopTime 	688.3
scalar RSUExampleScenario.node[119].veinsmobility 	minSpeed 	0.25504087976762
scalar RSUExampleScenario.node[119].veinsmobility 	maxSpeed 	13.999883569782
scalar RSUExampleScenario.node[119].veinsmobility 	totalDistance 	3410.0733417992
scalar RSUExampleScenario.node[119].veinsmobility 	totalCO2Emission 	754.61412576054
scalar RSUExampleScenario.node[120].veinsmobility 	startTime 	360.1
scalar RSUExampleScenario.node[120].veinsmobility 	totalTime 	331.8
scalar RSUExampleScenario.node[120].veinsmobility 	stopTime 	692
scalar RSUExampleScenario.node[120].veinsmobility 	minSpeed 	0.25703051619348
scalar RSUExampleScenario.node[120].veinsmobility 	maxSpeed 	13.999967412157
scalar RSUExampleScenario.node[120].veinsmobility 	totalDistance 	3414.3406563431
scalar RSUExampleScenario.node[120].veinsmobility 	totalCO2Emission 	755.11381142063
scalar RSUExampleScenario.node[121].veinsmobility 	startTime 	363.1
scalar RSUExampleScenario.node[121].veinsmobility 	totalTime 	332.5
scalar RSUExampleScenario.node[121].veinsmobility 	stopTime 	695.7
scalar RSUExampleScenario.node[121].veinsmobility 	minSpeed 	0.25805993267917
scalar RSUExampleScenario.node[121].veinsmobility 	maxSpeed 	13.999947099646
scalar RSUExampleScenario.node[121].veinsmobility 	totalDistance 	3409.9918598496
scalar RSUExampleScenario.node[121].veinsmobility 	totalCO2Emission 	757.10199644666
scalar RSUExampleScenario.node[122].veinsmobility 	startTime 	366.1
scalar RSUExampleScenario.node[122].veinsmobility 	totalTime 	333.2
scalar RSUExampleScenario.node[122].veinsmobility 	stopTime 	699.4
scalar RSUExampleScenario.node[122].veinsmobility 	minSpeed 	0.25510757730366
scalar RSUExampleScenario.node[122].veinsmobility 	maxSpeed 	13.999865304779
scalar RSUExampleScenario.node[122].veinsmobility 	totalDistance 	3409.7186990256
scalar RSUExampleScenario.node[122].veinsmobility 	totalCO2Emission 	755.80437141536
scalar RSUExampleScenario.node[123].veinsmobility 	startTime 	369.1
scalar RSUExampleScenario.node[123].veinsmobility 	totalTime 	333.8
scalar RSUExampleScenario.node[123].veinsmobility 	stopTime 	703
scalar RSUExampleScenario.node[123].veinsmobility 	minSpeed 	0.25801598860649
scalar RSUExampleScenario.node[123].veinsmobility 	maxSpeed 	13.999702483881
scalar RSUExampleScenario.node[123].veinsmobility 	totalDistance 	3413.9381300942
scalar RSUExampleScenario.node[123].veinsmobility 	totalCO2Emission 	754.43208188652
scalar RSUExampleScenario.node[124].veinsmobility 	startTime 	372.1
scalar RSUExampleScenario.node[124].veinsmobility 	totalTime 	334.5
scalar RSUExampleScenario.node[124].veinsmobility 	stopTime 	706.7
scalar RSUExampleScenario.node[124].veinsmobility 	minSpeed 	0.25739811974438
scalar RSUExampleScenario.node[124].veinsmobility 	maxSpeed 	13.999926269734
scalar RSUExampleScenario.node[124].veinsmobility 	totalDistance 	3410.0113518821
scalar RSUExampleScenario.node[124].veinsmobility 	totalCO2Emission 	755.32991859993
scalar RSUExampleScenario.node[125].veinsmobility 	startTime 	375.1
scalar RSUExampleScenario.node[125].veinsmobility 	totalTime 	335.2
scalar RSUExampleScenario.node[125].veinsmobility 	stopTime 	710.4
scalar RSUExampleScenario.node[125].veinsmobility 	minSpeed 	0.24768892588676
scalar RSUExampleScenario.node[125].veinsmobility 	maxSpeed 	13.999978473138
scalar RSUExampleScenario.node[125].veinsmobility 	totalDistance 	3414.286332855
scalar RSUExampleScenario.node[125].veinsmobility 	totalCO2Emission 	754.29520875344
scalar RSUExampleScenario.node[126].veinsmobility 	startTime 	378.1
scalar RSUExampleScenario.node[126].veinsmobility 	totalTime 	335.9
scalar RSUExampleScenario.node[126].veinsmobility 	stopTime 	714.1
scalar RSUExampleScenario.node[126].veinsmobility 	minSpeed 	0.25049615933513
scalar RSUExampleScenario.node[126].veinsmobility 	maxSpeed 	13.999902043876
scalar RSUExampleScenario.node[126].veinsmobility 	totalDistance 	3410.0484553707
scalar RSUExampleScenario.node[126].veinsmobility 	totalCO2Emission 	759.83433040114
scalar RSUExampleScenario.node[127].veinsmobility 	startTime 	381.1
scalar RSUExampleScenario.node[127].veinsmobility 	totalTime 	336.6
scalar RSUExampleScenario.node[127].veinsmobility 	stopTime 	717.8
scalar RSUExampleScenario.node[127].veinsmobility 	minSpeed 	0.24952785219229
scalar RSUExampleScenario.node[127].veinsmobility 	maxSpeed 	13.999982158416
scalar RSUExampleScenario.node[127].veinsmobility 	totalDistance 	3414.0652520541
scalar RSUExampleScenario.node[127].veinsmobility 	totalCO2Emission 	760.22574736236
scalar RSUExampleScenario.node[128].veinsmobility 	startTime 	384.1
scalar RSUExampleScenario.node[128].veinsmobility 	totalTime 	337.3
scalar RSUExampleScenario.node[128].veinsmobility 	stopTime 	721.5
scalar RSUExampleScenario.node[128].veinsmobility 	minSpeed 	0.25150476560136
scalar RSUExampleScenario.node[128].veinsmobility 	maxSpeed 	13.999883451706
scalar RSUExampleScenario.node[128].veinsmobility 	totalDistance 	3409.8281922191
scalar RSUExampleScenario.node[128].veinsmobility 	totalCO2Emission 	754.16346138395
scalar RSUExampleScenario.node[129].veinsmobility 	startTime 	387.1
scalar RSUExampleScenario.node[129].veinsmobility 	totalTime 	338
scalar RSUExampleScenario.node[129].veinsmobility 	stopTime 	725.2
scalar RSUExampleScenario.node[129].veinsmobility 	minSpeed 	0.25931858961424
scalar RSUExampleScenario.node[129].veinsmobility 	maxSpeed 	13.99990918821
scalar RSUExampleScenario.node[129].veinsmobility 	totalDistance 	3414.046192483
scalar RSUExampleScenario.node[129].veinsmobility 	totalCO2Emission 	760.46592137055
scalar RSUExampleScenario.node[130].veinsmobility 	startTime 	390.1
scalar RSUExampleScenario.node[130].veinsmobility 	totalTime 	338.7
scalar RSUExampleScenario.node[130].veinsmobility 	stopTime 	728.9
scalar RSUExampleScenario.node[130].veinsmobility 	minSpeed 	0.25696348461695
scalar RSUExampleScenario.node[130].veinsmobility 	maxSpeed 	13.999973393595
scalar RSUExampleScenario.node[130].veinsmobility 	totalDistance 	3409.8520845501
scalar RSUExampleScenario.node[130].veinsmobility 	totalCO2Emission 	762.72084448806
scalar RSUExampleScenario.node[131].veinsmobility 	startTime 	393.1
scalar RSUExampleScenario.node[131].veinsmobility 	totalTime 	339.4
scalar RSUExampleScenario.node[131].veinsmobility 	stopTime 	732.6
scalar RSUExampleScenario.node[131].veinsmobility 	minSpeed 	0.2586154760702
scalar RSUExampleScenario.node[131].veinsmobility 	maxSpeed 	13.999965888225
scalar RSUExampleScenario.node[131].veinsmobility 	totalDistance 	3413.9629265312
scalar RSUExampleScenario.node[131].veinsmobility 	totalCO2Emission 	760.43671911555
scalar RSUExampleScenario.node[132].veinsmobility 	startTime 	396.1
scalar RSUExampleScenario.node[132].veinsmobility 	totalTime 	340.1
scalar RSUExampleScenario.node[132].veinsmobility 	stopTime 	736.3
scalar RSUExampleScenario.node[132].veinsmobility 	minSpeed 	0.24755739678442
scalar RSUExampleScenario.node[132].veinsmobility 	maxSpeed 	13.999976922327
scalar RSUExampleScenario.node[132].veinsmobility 	totalDistance 	3409.9653439859
scalar RSUExampleScenario.node[132].veinsmobility 	totalCO2Emission 	762.44842654221
scalar RSUExampleScenario.node[133].veinsmobility 	startTime 	399.1
scalar RSUExampleScenario.node[133].veinsmobility 	totalTime 	340.8
scalar RSUExampleScenario.node[133].veinsmobility 	stopTime 	740
scalar RSUExampleScenario.node[133].veinsmobility 	minSpeed 	0.25898295357614
scalar RSUExampleScenario.node[133].veinsmobility 	maxSpeed 	13.999989852901
scalar RSUExampleScenario.node[133].veinsmobility 	totalDistance 	3414.1632301097
scalar RSUExampleScenario.node[133].veinsmobility 	totalCO2Emission 	768.24489034094
scalar RSUExampleScenario.node[134].veinsmobility 	startTime 	402.1
scalar RSUExampleScenario.node[134].veinsmobility 	totalTime 	341.5
scalar RSUExampleScenario.node[134].veinsmobility 	stopTime 	743.7
scalar RSUExampleScenario.node[134].veinsmobility 	minSpeed 	0.25141491976217
scalar RSUExampleScenario.node[134].veinsmobility 	maxSpeed 	13.999981320265
scalar RSUExampleScenario.node[134].veinsmobility 	totalDistance 	3409.8627181576
scalar RSUExampleScenario.node[134].veinsmobility 	totalCO2Emission 	759.52213537642
scalar RSUExampleScenario.node[135].veinsmobility 	startTime 	405.1
scalar RSUExampleScenario.node[135].veinsmobility 	totalTime 	342.2
scalar RSUExampleScenario.node[135].veinsmobility 	stopTime 	747.4
scalar RSUExampleScenario.node[135].veinsmobility 	minSpeed 	0.24995785146928
scalar RSUExampleScenario.node[135].veinsmobility 	maxSpeed 	13.999799177588
scalar RSUExampleScenario.node[135].veinsmobility 	totalDistance 	3414.2456600644
scalar RSUExampleScenario.node[135].veinsmobility 	totalCO2Emission 	758.85868532223
scalar RSUExampleScenario.node[136].veinsmobility 	startTime 	408.1
scalar RSUExampleScenario.node[136].veinsmobility 	totalTime 	342.9
scalar RSUExampleScenario.node[136].veinsmobility 	stopTime 	751.1
scalar RSUExampleScenario.node[136].veinsmobility 	minSpeed 	0.24820653056074
scalar RSUExampleScenario.node[136].veinsmobility 	maxSpeed 	13.999983568117
scalar RSUExampleScenario.node[136].veinsmobility 	totalDistance 	3410.1449460986
scalar RSUExampleScenario.node[136].veinsmobility 	totalCO2Emission 	762.9321203397
scalar RSUExampleScenario.node[137].veinsmobility 	startTime 	411.1
scalar RSUExampleScenario.node[137].veinsmobility 	totalTime 	343.6
scalar RSUExampleScenario.node[137].veinsmobility 	stopTime 	754.8
scalar RSUExampleScenario.node[137].veinsmobility 	minSpeed 	0.25450881459774
scalar RSUExampleScenario.node[137].veinsmobility 	maxSpeed 	13.999973193191
scalar RSUExampleScenario.node[137].veinsmobility 	totalDistance 	3413.627245895
scalar RSUExampleScenario.node[137].veinsmobility 	totalCO2Emission 	766.71172841211
scalar RSUExampleScenario.node[138].veinsmobility 	startTime 	414.1
scalar RSUExampleScenario.node[138].veinsmobility 	totalTime 	344.3
scalar RSUExampleScenario.node[138].veinsmobility 	stopTime 	758.5
scalar RSUExampleScenario.node[138].veinsmobility 	minSpeed 	0.25017076854035
scalar RSUExampleScenario.node[138].veinsmobility 	maxSpeed 	13.999945621055
scalar RSUExampleScenario.node[138].veinsmobility 	totalDistance 	3410.1119737984
scalar RSUExampleScenario.node[138].veinsmobility 	totalCO2Emission 	767.25015232013
scalar RSUExampleScenario.node[139].veinsmobility 	startTime 	417.1
scalar RSUExampleScenario.node[139].veinsmobility 	totalTime 	345
scalar RSUExampleScenario.node[139].veinsmobility 	stopTime 	762.2
scalar RSUExampleScenario.node[139].veinsmobility 	minSpeed 	0.25267742639431
scalar RSUExampleScenario.node[139].veinsmobility 	maxSpeed 	13.999969139369
scalar RSUExampleScenario.node[139].veinsmobility 	totalDistance 	3413.9292156046
scalar RSUExampleScenario.node[139].veinsmobility 	totalCO2Emission 	767.52613180129
scalar RSUExampleScenario.node[140].veinsmobility 	startTime 	420.1
scalar RSUExampleScenario.node[140].veinsmobility 	totalTime 	345.7
scalar RSUExampleScenario.node[140].veinsmobility 	stopTime 	765.9
scalar RSUExampleScenario.node[140].veinsmobility 	minSpeed 	0.24936751725269
scalar RSUExampleScenario.node[140].veinsmobility 	maxSpeed 	13.999886977654
scalar RSUExampleScenario.node[140].veinsmobility 	totalDistance 	3410.1116992255
scalar RSUExampleScenario.node[140].veinsmobility 	totalCO2Emission 	772.83956333935
scalar RSUExampleScenario.node[141].veinsmobility 	startTime 	423.1
scalar RSUExampleScenario.node[141].veinsmobility 	totalTime 	346.5
scalar RSUExampleScenario.node[141].veinsmobility 	stopTime 	769.7
scalar RSUExampleScenario.node[141].veinsmobility 	minSpeed 	0.25231083956012
scalar RSUExampleScenario.node[141].veinsmobility 	maxSpeed 	13.999890553907
scalar RSUExampleScenario.node[141].veinsmobility 	totalDistance 	3414.3918959249
scalar RSUExampleScenario.node[141].veinsmobility 	totalCO2Emission 	770.73088595489
scalar RSUExampleScenario.node[142].veinsmobility 	startTime 	426.1
scalar RSUExampleScenario.node[142].veinsmobility 	totalTime 	347.2
scalar RSUExampleScenario.node[142].veinsmobility 	stopTime 	773.4
scalar RSUExampleScenario.node[142].veinsmobility 	minSpeed 	0.25374244447891
scalar RSUExampleScenario.node[142].veinsmobility 	maxSpeed 	13.999816050446
scalar RSUExampleScenario.node[142].veinsmobility 	totalDistance 	3409.6799224673
scalar RSUExampleScenario.node[142].veinsmobility 	totalCO2Emission 	766.50315328499
scalar RSUExampleScenario.node[143].veinsmobility 	startTime 	429.1
scalar RSUExampleScenario.node[143].veinsmobility 	totalTime 	347.9
scalar RSUExampleScenario.node[143].veinsmobility 	stopTime 	777.1
scalar RSUExampleScenario.node[143].veinsmobility 	minSpeed 	0.25870606378373
scalar RSUExampleScenario.node[143].veinsmobility 	maxSpeed 	13.999736559335
scalar RSUExampleScenario.node[143].veinsmobility 	totalDistance 	3409.6710939388
scalar RSUExampleScenario.node[143].veinsmobility 	totalCO2Emission 	765.89254167645
scalar RSUExampleScenario.node[144].veinsmobility 	startTime 	432.1
scalar RSUExampleScenario.node[144].veinsmobility 	totalTime 	348.6
scalar RSUExampleScenario.node[144].veinsmobility 	stopTime 	780.8
scalar RSUExampleScenario.node[144].veinsmobility 	minSpeed 	0.25373015914625
scalar RSUExampleScenario.node[144].veinsmobility 	maxSpeed 	13.999983866832
scalar RSUExampleScenario.node[144].veinsmobility 	totalDistance 	3413.9767651575
scalar RSUExampleScenario.node[144].veinsmobility 	totalCO2Emission 	765.5543678543
scalar RSUExampleScenario.node[145].veinsmobility 	startTime 	435.1
scalar RSUExampleScenario.node[145].veinsmobility 	totalTime 	349.3
scalar RSUExampleScenario.node[145].veinsmobility 	stopTime 	784.5
scalar RSUExampleScenario.node[145].veinsmobility 	minSpeed 	0.24954958709562
scalar RSUExampleScenario.node[145].veinsmobility 	maxSpeed 	13.999959970531
scalar RSUExampleScenario.node[145].veinsmobility 	totalDistance 	3409.906512584
scalar RSUExampleScenario.node[145].veinsmobility 	totalCO2Emission 	769.15457342552
scalar RSUExampleScenario.node[146].veinsmobility 	startTime 	438.1
scalar RSUExampleScenario.node[146].veinsmobility 	totalTime 	349.9
scalar RSUExampleScenario.node[146].veinsmobility 	stopTime 	788.1
scalar RSUExampleScenario.node[146].veinsmobility 	minSpeed 	0.2533659744761
scalar RSUExampleScenario.node[146].veinsmobility 	maxSpeed 	13.999994619291
scalar RSUExampleScenario.node[146].veinsmobility 	totalDistance 	3413.7542677226
scalar RSUExampleScenario.node[146].veinsmobility 	totalCO2Emission 	773.28186244388
scalar RSUExampleScenario.node[147].veinsmobility 	startTime 	441.1
scalar RSUExampleScenario.node[147].veinsmobility 	totalTime 	350.6
scalar RSUExampleScenario.node[147].veinsmobility 	stopTime 	791.8
scalar RSUExampleScenario.node[147].veinsmobility 	minSpeed 	0.25023365198355
scalar RSUExampleScenario.node[147].veinsmobility 	maxSpeed 	13.999986410704
scalar RSUExampleScenario.node[147].veinsmobility 	totalDistance 	3410.0864896483
scalar RSUExampleScenario.node[147].veinsmobility 	totalCO2Emission 	774.46770691073
scalar RSUExampleScenario.node[148].veinsmobility 	startTime 	444.1
scalar RSUExampleScenario.node[148].veinsmobility 	totalTime 	351.2
scalar RSUExampleScenario.node[148].veinsmobility 	stopTime 	795.4
scalar RSUExampleScenario.node[148].veinsmobility 	minSpeed 	0.25880846749456
scalar RSUExampleScenario.node[148].veinsmobility 	maxSpeed 	13.99994046221
scalar RSUExampleScenario.node[148].veinsmobility 	totalDistance 	3413.8022762165
scalar RSUExampleScenario.node[148].veinsmobility 	totalCO2Emission 	772.57827065629
scalar RSUExampleScenario.node[149].veinsmobility 	startTime 	447.1
scalar RSUExampleScenario.node[149].veinsmobility 	totalTime 	351.9
scalar RSUExampleScenario.node[149].veinsmobility 	stopTime 	799.1
scalar RSUExampleScenario.node[149].veinsmobility 	minSpeed 	0.25379794773716
scalar RSUExampleScenario.node[149].veinsmobility 	maxSpeed 	13.999922151563
scalar RSUExampleScenario.node[149].veinsmobility 	totalDistance 	3410.1581009131
scalar RSUExampleScenario.node[149].veinsmobility 	totalCO2Emission 	777.28705632852
scalar RSUExampleScenario.node[150].veinsmobility 	startTime 	450.1
scalar RSUExampleScenario.node[150].veinsmobility 	totalTime 	352.6
scalar RSUExampleScenario.node[150].veinsmobility 	stopTime 	802.8
scalar RSUExampleScenario.node[150].veinsmobility 	minSpeed 	0.25945009748661
scalar RSUExampleScenario.node[150].veinsmobility 	maxSpeed 	13.999929024242
scalar RSUExampleScenario.node[150].veinsmobility 	totalDistance 	3413.9638710203
scalar RSUExampleScenario.node[150].veinsmobility 	totalCO2Emission 	776.98005482265
scalar RSUExampleScenario.node[151].veinsmobility 	startTime 	453.1
scalar RSUExampleScenario.node[151].veinsmobility 	totalTime 	353.3
scalar RSUExampleScenario.node[151].veinsmobility 	stopTime 	806.5
scalar RSUExampleScenario.node[151].veinsmobility 	minSpeed 	0.24771128090541
scalar RSUExampleScenario.node[151].veinsmobility 	maxSpeed 	13.999976850259
scalar RSUExampleScenario.node[151].veinsmobility 	totalDistance 	3409.7741245538
scalar RSUExampleScenario.node[151].veinsmobility 	totalCO2Emission 	775.3877125791
scalar RSUExampleScenario.node[152].veinsmobility 	startTime 	456.1
scalar RSUExampleScenario.node[152].veinsmobility 	totalTime 	354
scalar RSUExampleScenario.node[152].veinsmobility 	stopTime 	810.2
scalar RSUExampleScenario.node[152].veinsmobility 	minSpeed 	0.25070601269905
scalar RSUExampleScenario.node[152].veinsmobility 	maxSpeed 	13.999897355819
scalar RSUExampleScenario.node[152].veinsmobility 	totalDistance 	3414.1961894612
[...]
scalar RSUExampleScenario.node[628].veinsmobility 	totalCO2Emission 	325.17009845692
scalar RSUExampleScenario.node[629].veinsmobility 	startTime 	1887.1
scalar RSUExampleScenario.node[629].veinsmobility 	totalTime 	112.8
scalar RSUExampleScenario.node[629].veinsmobility 	stopTime 	2000
scalar RSUExampleScenario.node[629].veinsmobility 	minSpeed 	0.25750130301923
scalar RSUExampleScenario.node[629].veinsmobility 	maxSpeed 	13.999944055201
scalar RSUExampleScenario.node[629].veinsmobility 	totalDistance 	1364.245460783
scalar RSUExampleScenario.node[629].veinsmobility 	totalCO2Emission 	317.05748861236
scalar RSUExampleScenario.node[630].veinsmobility 	startTime 	1890.1
scalar RSUExampleScenario.node[630].veinsmobility 	totalTime 	109.8
scalar RSUExampleScenario.node[630].veinsmobility 	stopTime 	2000
scalar RSUExampleScenario.node[630].veinsmobility 	minSpeed 	0.25818789018667
scalar RSUExampleScenario.node[630].veinsmobility 	maxSpeed 	13.999623586296
scalar RSUExampleScenario.node[630].veinsmobility 	totalDistance 	1322.628242933
scalar RSUExampleScenario.node[630].veinsmobility 	totalCO2Emission 	307.84139822
scalar RSUExampleScenario.node[631].veinsmobility 	startTime 	1893.1
scalar RSUExampleScenario.node[631].veinsmobility 	totalTime 	106.8
scalar RSUExampleScenario.node[631].veinsmobility 	stopTime 	2000
scalar RSUExampleScenario.node[631].veinsmobility 	minSpeed 	0.25974986004364
scalar RSUExampleScenario.node[631].veinsmobility 	maxSpeed 	13.999394023011
scalar RSUExampleScenario.node[631].veinsmobility 	totalDistance 	1280.6866712265
scalar RSUExampleScenario.node[631].veinsmobility 	totalCO2Emission 	302.41670568423
scalar RSUExampleScenario.node[632].veinsmobility 	startTime 	1896.1
scalar RSUExampleScenario.node[632].veinsmobility 	totalTime 	103.8
scalar RSUExampleScenario.node[632].veinsmobility 	stopTime 	2000
scalar RSUExampleScenario.node[632].veinsmobility 	minSpeed 	0.25575323569495
scalar RSUExampleScenario.node[632].veinsmobility 	maxSpeed 	13.99982438531
scalar RSUExampleScenario.node[632].veinsmobility 	totalDistance 	1236.4829572518
scalar RSUExampleScenario.node[632].veinsmobility 	totalCO2Emission 	295.38182664096
scalar RSUExampleScenario.node[633].veinsmobility 	startTime 	1899.1
scalar RSUExampleScenario.node[633].veinsmobility 	totalTime 	100.8
scalar RSUExampleScenario.node[633].veinsmobility 	stopTime 	2000
scalar RSUExampleScenario.node[633].veinsmobility 	minSpeed 	0.25557918016938
scalar RSUExampleScenario.node[633].veinsmobility 	maxSpeed 	13.999693618086
scalar RSUExampleScenario.node[633].veinsmobility 	totalDistance 	1196.9245924453
scalar RSUExampleScenario.node[633].veinsmobility 	totalCO2Emission 	290.03023527697
scalar RSUExampleScenario.node[634].veinsmobility 	startTime 	1902.1
scalar RSUExampleScenario.node[634].veinsmobility 	totalTime 	97.8
scalar RSUExampleScenario.node[634].veinsmobility 	stopTime 	2000
scalar RSUExampleScenario.node[634].veinsmobility 	minSpeed 	0.2470937495979
scalar RSUExampleScenario.node[634].veinsmobility 	maxSpeed 	13.999277844168
scalar RSUExampleScenario.node[634].veinsmobility 	totalDistance 	1155.4310360649
scalar RSUExampleScenario.node[634].veinsmobility 	totalCO2Emission 	280.40027900953
scalar RSUExampleScenario.node[635].veinsmobility 	startTime 	1905.1
scalar RSUExampleScenario.node[635].veinsmobility 	totalTime 	94.8
scalar RSUExampleScenario.node[635].veinsmobility 	stopTime 	2000
scalar RSUExampleScenario.node[635].veinsmobility 	minSpeed 	0.25273590735928
scalar RSUExampleScenario.node[635].veinsmobility 	maxSpeed 	13.999979319945
scalar RSUExampleScenario.node[635].veinsmobility 	totalDistance 	1112.4406396905
scalar RSUExampleScenario.node[635].veinsmobility 	totalCO2Emission 	276.51539144204
scalar RSUExampleScenario.node[636].veinsmobility 	startTime 	1908.1
scalar RSUExampleScenario.node[636].veinsmobility 	totalTime 	91.8
scalar RSUExampleScenario.node[636].veinsmobility 	stopTime 	2000
scalar RSUExampleScenario.node[636].veinsmobility 	minSpeed 	0.25424549968424
scalar RSUExampleScenario.node[636].veinsmobility 	maxSpeed 	13.99974276524
scalar RSUExampleScenario.node[636].veinsmobility 	totalDistance 	1071.0165631677
scalar RSUExampleScenario.node[636].veinsmobility 	totalCO2Emission 	267.87390648785
scalar RSUExampleScenario.node[637].veinsmobility 	startTime 	1911.1
scalar RSUExampleScenario.node[637].veinsmobility 	totalTime 	88.8
scalar RSUExampleScenario.node[637].veinsmobility 	stopTime 	2000
scalar RSUExampleScenario.node[637].veinsmobility 	minSpeed 	0.25412351224897
scalar RSUExampleScenario.node[637].veinsmobility 	maxSpeed 	13.999948254945
scalar RSUExampleScenario.node[637].veinsmobility 	totalDistance 	1029.347774157
scalar RSUExampleScenario.node[637].veinsmobility 	totalCO2Emission 	262.8344157166
scalar RSUExampleScenario.node[638].veinsmobility 	startTime 	1914.1
scalar RSUExampleScenario.node[638].veinsmobility 	totalTime 	85.8
scalar RSUExampleScenario.node[638].veinsmobility 	stopTime 	2000
scalar RSUExampleScenario.node[638].veinsmobility 	minSpeed 	0.25115599436918
scalar RSUExampleScenario.node[638].veinsmobility 	maxSpeed 	13.999716970865
scalar RSUExampleScenario.node[638].veinsmobility 	totalDistance 	987.88046062722
scalar RSUExampleScenario.node[638].veinsmobility 	totalCO2Emission 	254.11613758386
scalar RSUExampleScenario.node[639].veinsmobility 	startTime 	1917.1
scalar RSUExampleScenario.node[639].veinsmobility 	totalTime 	82.8
scalar RSUExampleScenario.node[639].veinsmobility 	stopTime 	2000
scalar RSUExampleScenario.node[639].veinsmobility 	minSpeed 	0.25969644823344
scalar RSUExampleScenario.node[639].veinsmobility 	maxSpeed 	13.999849360846
scalar RSUExampleScenario.node[639].veinsmobility 	totalDistance 	953.36557198276
scalar RSUExampleScenario.node[639].veinsmobility 	totalCO2Emission 	232.74041108867
scalar RSUExampleScenario.node[640].veinsmobility 	startTime 	1920.1
scalar RSUExampleScenario.node[640].veinsmobility 	totalTime 	79.8
scalar RSUExampleScenario.node[640].veinsmobility 	stopTime 	2000
scalar RSUExampleScenario.node[640].veinsmobility 	minSpeed 	0.2490404034832
scalar RSUExampleScenario.node[640].veinsmobility 	maxSpeed 	13.99913402539
scalar RSUExampleScenario.node[640].veinsmobility 	totalDistance 	937.31579718152
scalar RSUExampleScenario.node[640].veinsmobility 	totalCO2Emission 	220.05498516212
scalar RSUExampleScenario.node[641].veinsmobility 	startTime 	1923.1
scalar RSUExampleScenario.node[641].veinsmobility 	totalTime 	76.8
scalar RSUExampleScenario.node[641].veinsmobility 	stopTime 	2000
scalar RSUExampleScenario.node[641].veinsmobility 	minSpeed 	0.24703033040231
scalar RSUExampleScenario.node[641].veinsmobility 	maxSpeed 	13.999987714558
scalar RSUExampleScenario.node[641].veinsmobility 	totalDistance 	912.73283273053
scalar RSUExampleScenario.node[641].veinsmobility 	totalCO2Emission 	218.90831710242
scalar RSUExampleScenario.node[642].veinsmobility 	startTime 	1926.1
scalar RSUExampleScenario.node[642].veinsmobility 	totalTime 	73.8
scalar RSUExampleScenario.node[642].veinsmobility 	stopTime 	2000
scalar RSUExampleScenario.node[642].veinsmobility 	minSpeed 	0.25731496949797
scalar RSUExampleScenario.node[642].veinsmobility 	maxSpeed 	13.998769997798
scalar RSUExampleScenario.node[642].veinsmobility 	totalDistance 	874.00357764276
scalar RSUExampleScenario.node[642].veinsmobility 	totalCO2Emission 	211.93205069393
scalar RSUExampleScenario.node[643].veinsmobility 	startTime 	1929.1
scalar RSUExampleScenario.node[643].veinsmobility 	totalTime 	70.8
scalar RSUExampleScenario.node[643].veinsmobility 	stopTime 	2000
scalar RSUExampleScenario.node[643].veinsmobility 	minSpeed 	0.25597091180109
scalar RSUExampleScenario.node[643].veinsmobility 	maxSpeed 	13.999740540301
scalar RSUExampleScenario.node[643].veinsmobility 	totalDistance 	831.3873276092
scalar RSUExampleScenario.node[643].veinsmobility 	totalCO2Emission 	208.24835826877
scalar RSUExampleScenario.node[644].veinsmobility 	startTime 	1932.1
scalar RSUExampleScenario.node[644].veinsmobility 	totalTime 	67.8
scalar RSUExampleScenario.node[644].veinsmobility 	stopTime 	2000
scalar RSUExampleScenario.node[644].veinsmobility 	minSpeed 	0.25599264418916
scalar RSUExampleScenario.node[644].veinsmobility 	maxSpeed 	13.999897435999
scalar RSUExampleScenario.node[644].veinsmobility 	totalDistance 	789.33566155477
scalar RSUExampleScenario.node[644].veinsmobility 	totalCO2Emission 	201.79974150328
scalar RSUExampleScenario.node[645].veinsmobility 	startTime 	1935.1
scalar RSUExampleScenario.node[645].veinsmobility 	totalTime 	64.8
scalar RSUExampleScenario.node[645].veinsmobility 	stopTime 	2000
scalar RSUExampleScenario.node[645].veinsmobility 	minSpeed 	0.25088030850398
scalar RSUExampleScenario.node[645].veinsmobility 	maxSpeed 	13.998167355766
scalar RSUExampleScenario.node[645].veinsmobility 	totalDistance 	750.15778993945
scalar RSUExampleScenario.node[645].veinsmobility 	totalCO2Emission 	191.26536956723
scalar RSUExampleScenario.node[646].veinsmobility 	startTime 	1938.1
scalar RSUExampleScenario.node[646].veinsmobility 	totalTime 	61.8
scalar RSUExampleScenario.node[646].veinsmobility 	stopTime 	2000
scalar RSUExampleScenario.node[646].veinsmobility 	minSpeed 	0.25191182590555
scalar RSUExampleScenario.node[646].veinsmobility 	maxSpeed 	13.999989445191
scalar RSUExampleScenario.node[646].veinsmobility 	totalDistance 	705.63705824908
scalar RSUExampleScenario.node[646].veinsmobility 	totalCO2Emission 	185.44364978278
scalar RSUExampleScenario.node[647].veinsmobility 	startTime 	1941.1
scalar RSUExampleScenario.node[647].veinsmobility 	totalTime 	58.8
scalar RSUExampleScenario.node[647].veinsmobility 	stopTime 	2000
scalar RSUExampleScenario.node[647].veinsmobility 	minSpeed 	0.25414613188547
scalar RSUExampleScenario.node[647].veinsmobility 	maxSpeed 	13.99888475002
scalar RSUExampleScenario.node[647].veinsmobility 	totalDistance 	665.6043903262
scalar RSUExampleScenario.node[647].veinsmobility 	totalCO2Emission 	180.61598718121
scalar RSUExampleScenario.node[648].veinsmobility 	startTime 	1944.1
scalar RSUExampleScenario.node[648].veinsmobility 	totalTime 	55.8
scalar RSUExampleScenario.node[648].veinsmobility 	stopTime 	2000
scalar RSUExampleScenario.node[648].veinsmobility 	minSpeed 	0.24805190765578
scalar RSUExampleScenario.node[648].veinsmobility 	maxSpeed 	13.999853715713
scalar RSUExampleScenario.node[648].veinsmobility 	totalDistance 	622.28038692411
scalar RSUExampleScenario.node[648].veinsmobility 	totalCO2Emission 	171.12406135029
scalar RSUExampleScenario.node[649].veinsmobility 	startTime 	1947.1
scalar RSUExampleScenario.node[649].veinsmobility 	totalTime 	52.8
scalar RSUExampleScenario.node[649].veinsmobility 	stopTime 	2000
scalar RSUExampleScenario.node[649].veinsmobility 	minSpeed 	0.2551751886846
scalar RSUExampleScenario.node[649].veinsmobility 	maxSpeed 	13.999870499976
scalar RSUExampleScenario.node[649].veinsmobility 	totalDistance 	581.16431891108
scalar RSUExampleScenario.node[649].veinsmobility 	totalCO2Emission 	164.83059955312
scalar RSUExampleScenario.node[650].veinsmobility 	startTime 	1950.1
scalar RSUExampleScenario.node[650].veinsmobility 	totalTime 	49.8
scalar RSUExampleScenario.node[650].veinsmobility 	stopTime 	2000
scalar RSUExampleScenario.node[650].veinsmobility 	minSpeed 	0.25662535871333
scalar RSUExampleScenario.node[650].veinsmobility 	maxSpeed 	13.999349917837
scalar RSUExampleScenario.node[650].veinsmobility 	totalDistance 	537.3783717129
scalar RSUExampleScenario.node[650].veinsmobility 	totalCO2Emission 	158.39573449715
scalar RSUExampleScenario.node[651].veinsmobility 	startTime 	1953.1
scalar RSUExampleScenario.node[651].veinsmobility 	totalTime 	46.8
scalar RSUExampleScenario.node[651].veinsmobility 	stopTime 	2000
scalar RSUExampleScenario.node[651].veinsmobility 	minSpeed 	0.25639219320868
scalar RSUExampleScenario.node[651].veinsmobility 	maxSpeed 	13.999371920784
scalar RSUExampleScenario.node[651].veinsmobility 	totalDistance 	495.5484938512
scalar RSUExampleScenario.node[651].veinsmobility 	totalCO2Emission 	149.7862960581
scalar RSUExampleScenario.node[652].veinsmobility 	startTime 	1956.1
scalar RSUExampleScenario.node[652].veinsmobility 	totalTime 	43.8
scalar RSUExampleScenario.node[652].veinsmobility 	stopTime 	2000
scalar RSUExampleScenario.node[652].veinsmobility 	minSpeed 	0.25766234855726
scalar RSUExampleScenario.node[652].veinsmobility 	maxSpeed 	13.999507262257
scalar RSUExampleScenario.node[652].veinsmobility 	totalDistance 	453.93541639237
scalar RSUExampleScenario.node[652].veinsmobility 	totalCO2Emission 	143.30782237857
scalar RSUExampleScenario.node[653].veinsmobility 	startTime 	1959.1
scalar RSUExampleScenario.node[653].veinsmobility 	totalTime 	40.8
scalar RSUExampleScenario.node[653].veinsmobility 	stopTime 	2000
scalar RSUExampleScenario.node[653].veinsmobility 	minSpeed 	0.25990462971199
scalar RSUExampleScenario.node[653].veinsmobility 	maxSpeed 	13.999133324565
scalar RSUExampleScenario.node[653].veinsmobility 	totalDistance 	412.72776283951
scalar RSUExampleScenario.node[653].veinsmobility 	totalCO2Emission 	136.3364572385
scalar RSUExampleScenario.node[654].veinsmobility 	startTime 	1962.1
scalar RSUExampleScenario.node[654].veinsmobility 	totalTime 	37.8
scalar RSUExampleScenario.node[654].veinsmobility 	stopTime 	2000
scalar RSUExampleScenario.node[654].veinsmobility 	minSpeed 	0.25002064570365
scalar RSUExampleScenario.node[654].veinsmobility 	maxSpeed 	13.998731240099
scalar RSUExampleScenario.node[654].veinsmobility 	totalDistance 	371.98549465928
scalar RSUExampleScenario.node[654].veinsmobility 	totalCO2Emission 	129.19714495774
scalar RSUExampleScenario.node[655].veinsmobility 	startTime 	1965.1
scalar RSUExampleScenario.node[655].veinsmobility 	totalTime 	34.8
scalar RSUExampleScenario.node[655].veinsmobility 	stopTime 	2000
scalar RSUExampleScenario.node[655].veinsmobility 	minSpeed 	0.25168688232941
scalar RSUExampleScenario.node[655].veinsmobility 	maxSpeed 	13.995723379168
scalar RSUExampleScenario.node[655].veinsmobility 	totalDistance 	328.19948294169
scalar RSUExampleScenario.node[655].veinsmobility 	totalCO2Emission 	121.76270635672
scalar RSUExampleScenario.node[656].veinsmobility 	startTime 	1968.1
scalar RSUExampleScenario.node[656].veinsmobility 	totalTime 	31.8
scalar RSUExampleScenario.node[656].veinsmobility 	stopTime 	2000
scalar RSUExampleScenario.node[656].veinsmobility 	minSpeed 	0.25646421975316
scalar RSUExampleScenario.node[656].veinsmobility 	maxSpeed 	13.978626466487
scalar RSUExampleScenario.node[656].veinsmobility 	totalDistance 	286.80099063606
scalar RSUExampleScenario.node[656].veinsmobility 	totalCO2Emission 	114.82266848815
scalar RSUExampleScenario.node[657].veinsmobility 	startTime 	1971.1
scalar RSUExampleScenario.node[657].veinsmobility 	totalTime 	28.8
scalar RSUExampleScenario.node[657].veinsmobility 	stopTime 	2000
scalar RSUExampleScenario.node[657].veinsmobility 	minSpeed 	0.24945233888202
scalar RSUExampleScenario.node[657].veinsmobility 	maxSpeed 	13.885754832779
scalar RSUExampleScenario.node[657].veinsmobility 	totalDistance 	248.2695011674
scalar RSUExampleScenario.node[657].veinsmobility 	totalCO2Emission 	99.140535056384
scalar RSUExampleScenario.node[658].veinsmobility 	startTime 	1974.1
scalar RSUExampleScenario.node[658].veinsmobility 	totalTime 	25.8
scalar RSUExampleScenario.node[658].veinsmobility 	stopTime 	2000
scalar RSUExampleScenario.node[658].veinsmobility 	minSpeed 	0.25508155523706
scalar RSUExampleScenario.node[658].veinsmobility 	maxSpeed 	13.889830318803
scalar RSUExampleScenario.node[658].veinsmobility 	totalDistance 	225.65591930127
scalar RSUExampleScenario.node[658].veinsmobility 	totalCO2Emission 	83.755039661113
scalar RSUExampleScenario.node[659].veinsmobility 	startTime 	1977.1
scalar RSUExampleScenario.node[659].veinsmobility 	totalTime 	22.8
scalar RSUExampleScenario.node[659].veinsmobility 	stopTime 	2000
scalar RSUExampleScenario.node[659].veinsmobility 	minSpeed 	0.25057587331184
scalar RSUExampleScenario.node[659].veinsmobility 	maxSpeed 	13.885094027366
scalar RSUExampleScenario.node[659].veinsmobility 	totalDistance 	207.82149029058
scalar RSUExampleScenario.node[659].veinsmobility 	totalCO2Emission 	78.21868949025
scalar RSUExampleScenario.node[660].veinsmobility 	startTime 	1980.1
scalar RSUExampleScenario.node[660].veinsmobility 	totalTime 	19.8
scalar RSUExampleScenario.node[660].veinsmobility 	stopTime 	2000
scalar RSUExampleScenario.node[660].veinsmobility 	minSpeed 	0.2514532041729
scalar RSUExampleScenario.node[660].veinsmobility 	maxSpeed 	13.881239054347
scalar RSUExampleScenario.node[660].veinsmobility 	totalDistance 	175.48559805485
scalar RSUExampleScenario.node[660].veinsmobility 	totalCO2Emission 	74.736959455136
scalar RSUExampleScenario.node[661].veinsmobility 	startTime 	1983.1
scalar RSUExampleScenario.node[661].veinsmobility 	totalTime 	16.8
scalar RSUExampleScenario.node[661].veinsmobility 	stopTime 	2000
scalar RSUExampleScenario.node[661].veinsmobility 	minSpeed 	0.25566056864359
scalar RSUExampleScenario.node[661].veinsmobility 	maxSpeed 	13.883171292657
scalar RSUExampleScenario.node[661].veinsmobility 	totalDistance 	137.72633218209
scalar RSUExampleScenario.node[661].veinsmobility 	totalCO2Emission 	58.005853172203
scalar RSUExampleScenario.node[662].veinsmobility 	startTime 	1986.1
scalar RSUExampleScenario.node[662].veinsmobility 	totalTime 	13.8
scalar RSUExampleScenario.node[662].veinsmobility 	stopTime 	2000
scalar RSUExampleScenario.node[662].veinsmobility 	minSpeed 	0.25139701820211
scalar RSUExampleScenario.node[662].veinsmobility 	maxSpeed 	13.885539909815
scalar RSUExampleScenario.node[662].veinsmobility 	totalDistance 	117.01873719988
scalar RSUExampleScenario.node[662].veinsmobility 	totalCO2Emission 	43.195315707046
scalar RSUExampleScenario.node[663].veinsmobility 	startTime 	1989.1
scalar RSUExampleScenario.node[663].veinsmobility 	totalTime 	10.8
scalar RSUExampleScenario.node[663].veinsmobility 	stopTime 	2000
scalar RSUExampleScenario.node[663].veinsmobility 	minSpeed 	0.25003609463992
scalar RSUExampleScenario.node[663].veinsmobility 	maxSpeed 	13.878423065222
scalar RSUExampleScenario.node[663].veinsmobility 	totalDistance 	96.512311230305
scalar RSUExampleScenario.node[663].veinsmobility 	totalCO2Emission 	39.63975666109
scalar RSUExampleScenario.node[664].veinsmobility 	startTime 	1992.1
scalar RSUExampleScenario.node[664].veinsmobility 	totalTime 	7.8
scalar RSUExampleScenario.node[664].veinsmobility 	stopTime 	2000
scalar RSUExampleScenario.node[664].veinsmobility 	minSpeed 	0.25415656533511
scalar RSUExampleScenario.node[664].veinsmobility 	maxSpeed 	13.867048474245
scalar RSUExampleScenario.node[664].veinsmobility 	totalDistance 	61.322210297645
scalar RSUExampleScenario.node[664].veinsmobility 	totalCO2Emission 	35.71837237679
scalar RSUExampleScenario.node[665].veinsmobility 	startTime 	1995.1
scalar RSUExampleScenario.node[665].veinsmobility 	totalTime 	4.8
scalar RSUExampleScenario.node[665].veinsmobility 	stopTime 	2000
scalar RSUExampleScenario.node[665].veinsmobility 	minSpeed 	0.25397643924155
scalar RSUExampleScenario.node[665].veinsmobility 	maxSpeed 	9.7258040006012
scalar RSUExampleScenario.node[665].veinsmobility 	totalDistance 	24.501123696238
scalar RSUExampleScenario.node[665].veinsmobility 	totalCO2Emission 	18.134914236071
scalar RSUExampleScenario.node[666].veinsmobility 	startTime 	1998.1
scalar RSUExampleScenario.node[666].veinsmobility 	totalTime 	1.8
scalar RSUExampleScenario.node[666].veinsmobility 	stopTime 	2000
scalar RSUExampleScenario.node[666].veinsmobility 	minSpeed 	0.25141345366579
scalar RSUExampleScenario.node[666].veinsmobility 	maxSpeed 	4.2272618836598
scalar RSUExampleScenario.node[666].veinsmobility 	totalDistance 	4.093412687626
scalar RSUExampleScenario.node[666].veinsmobility 	totalCO2Emission 	4.3456509804637
