version 2
run statistic-736-20150310-18:23:31-5916
attr c 9
attr configname statistic
attr datetime 20150310-18:23:31
attr experiment statistic
attr inifile omnetpp.ini
attr iterationvars "$p=1/10, $c=9"
attr iterationvars2 "$p=1/10, $c=9, $repetition=36"
attr measurement "$p=1/10, $c=9"
attr network RSUExampleScenario
attr p 1/10
attr processid 5916
attr repetition 36
attr replication #36
attr resultdir results
attr runnumber 736
attr seedset 736

scalar . 	c 	9
scalar RSUExampleScenario.rsu[0].appl 	NumberofCH 	13
scalar RSUExampleScenario.rsu[0].appl 	NumberofON 	76
scalar RSUExampleScenario.rsu[0].appl 	NumberofFN 	11
scalar RSUExampleScenario.rsu[0].appl 	meanClusterNodes 	5.8461538461538
scalar RSUExampleScenario.rsu[0].appl 	varClusterNodes 	3.2780424234865
scalar RSUExampleScenario.rsu[0].appl 	sumCHutility 	500.86578605866
scalar RSUExampleScenario.rsu[0].appl 	meanCHutility 	38.528137389127
scalar RSUExampleScenario.rsu[0].appl 	varCHutility 	2.8612849965227
scalar RSUExampleScenario.rsu[0].appl 	sumDiffCHutility 	-28003.785086715
scalar RSUExampleScenario.rsu[0].appl 	meanDiffCHutility 	-2154.1373143627
scalar RSUExampleScenario.rsu[0].appl 	varDiffCHutility 	1187.4327078306
scalar RSUExampleScenario.rsu[0].appl 	expectedCHutility 	446.27854340821
scalar RSUExampleScenario.rsu[0].appl 	meanExpectedCHutility 	34.329118723709
scalar RSUExampleScenario.rsu[0].appl 	varExpectedCHutility 	1.2752270308592
