version 2
run statisticRVV-106-20150327-05:11:45-5924
attr c 5
attr configname statisticRVV
attr datetime 20150327-05:11:45
attr experiment statisticRVV
attr inifile omnetpp.ini
attr iterationvars "$sc=\"erlangen-low.launchd.xml\", $p=1/5, $c=5"
attr iterationvars2 "$sc=\"erlangen-low.launchd.xml\", $p=1/5, $c=5, $repetition=6"
attr measurement "$sc=\"erlangen-low.launchd.xml\", $p=1/5, $c=5"
attr network RSUExampleScenario
attr p 1/5
attr processid 5924
attr repetition 6
attr replication #6
attr resultdir results
attr runnumber 106
attr sc "\"erlangen-low.launchd.xml\""
attr seedset 106

scalar . 	c 	5
scalar RSUExampleScenario.node[0].veinsmobility 	startTime 	0.1
scalar RSUExampleScenario.node[0].veinsmobility 	totalTime 	226.9
scalar RSUExampleScenario.node[0].veinsmobility 	stopTime 	227.1
scalar RSUExampleScenario.node[0].veinsmobility 	minSpeed 	0.25988865765417
scalar RSUExampleScenario.node[0].veinsmobility 	maxSpeed 	18.999910786753
scalar RSUExampleScenario.node[0].veinsmobility 	totalDistance 	3409.5505782583
scalar RSUExampleScenario.node[0].veinsmobility 	totalCO2Emission 	706.30568638501
scalar RSUExampleScenario.node[1].veinsmobility 	startTime 	6.1
scalar RSUExampleScenario.node[1].veinsmobility 	totalTime 	227
scalar RSUExampleScenario.node[1].veinsmobility 	stopTime 	233.2
scalar RSUExampleScenario.node[1].veinsmobility 	minSpeed 	0.25538417687151
scalar RSUExampleScenario.node[1].veinsmobility 	maxSpeed 	18.999926918438
scalar RSUExampleScenario.node[1].veinsmobility 	totalDistance 	3409.6830191417
scalar RSUExampleScenario.node[1].veinsmobility 	totalCO2Emission 	711.16209768099
scalar RSUExampleScenario.node[2].veinsmobility 	startTime 	12.1
scalar RSUExampleScenario.node[2].veinsmobility 	totalTime 	226.9
scalar RSUExampleScenario.node[2].veinsmobility 	stopTime 	239.1
scalar RSUExampleScenario.node[2].veinsmobility 	minSpeed 	0.24929095951235
scalar RSUExampleScenario.node[2].veinsmobility 	maxSpeed 	18.999935903912
scalar RSUExampleScenario.node[2].veinsmobility 	totalDistance 	3409.080387797
scalar RSUExampleScenario.node[2].veinsmobility 	totalCO2Emission 	706.16837240634
scalar RSUExampleScenario.node[3].veinsmobility 	startTime 	18.1
scalar RSUExampleScenario.node[3].veinsmobility 	totalTime 	226.7
scalar RSUExampleScenario.node[3].veinsmobility 	stopTime 	244.9
scalar RSUExampleScenario.node[3].veinsmobility 	minSpeed 	0.25976331615401
scalar RSUExampleScenario.node[3].veinsmobility 	maxSpeed 	18.999720478742
scalar RSUExampleScenario.node[3].veinsmobility 	totalDistance 	3409.3593495345
scalar RSUExampleScenario.node[3].veinsmobility 	totalCO2Emission 	706.23320641375
scalar RSUExampleScenario.node[4].veinsmobility 	startTime 	24.1
scalar RSUExampleScenario.node[4].veinsmobility 	totalTime 	227.1
scalar RSUExampleScenario.node[4].veinsmobility 	stopTime 	251.3
scalar RSUExampleScenario.node[4].veinsmobility 	minSpeed 	0.24883912770567
scalar RSUExampleScenario.node[4].veinsmobility 	maxSpeed 	18.999676752524
scalar RSUExampleScenario.node[4].veinsmobility 	totalDistance 	3409.2106540536
scalar RSUExampleScenario.node[4].veinsmobility 	totalCO2Emission 	706.03480238934
scalar RSUExampleScenario.node[5].veinsmobility 	startTime 	30.1
scalar RSUExampleScenario.node[5].veinsmobility 	totalTime 	227
scalar RSUExampleScenario.node[5].veinsmobility 	stopTime 	257.2
scalar RSUExampleScenario.node[5].veinsmobility 	minSpeed 	0.25280965378811
scalar RSUExampleScenario.node[5].veinsmobility 	maxSpeed 	18.999995893058
scalar RSUExampleScenario.node[5].veinsmobility 	totalDistance 	3409.3264828754
scalar RSUExampleScenario.node[5].veinsmobility 	totalCO2Emission 	706.93611443542
scalar RSUExampleScenario.node[6].veinsmobility 	startTime 	36.1
scalar RSUExampleScenario.node[6].veinsmobility 	totalTime 	227
scalar RSUExampleScenario.node[6].veinsmobility 	stopTime 	263.2
scalar RSUExampleScenario.node[6].veinsmobility 	minSpeed 	0.25934261420579
scalar RSUExampleScenario.node[6].veinsmobility 	maxSpeed 	18.999852812001
scalar RSUExampleScenario.node[6].veinsmobility 	totalDistance 	3409.6792455027
scalar RSUExampleScenario.node[6].veinsmobility 	totalCO2Emission 	710.82143905478
scalar RSUExampleScenario.node[7].veinsmobility 	startTime 	42.1
scalar RSUExampleScenario.node[7].veinsmobility 	totalTime 	226.9
scalar RSUExampleScenario.node[7].veinsmobility 	stopTime 	269.1
scalar RSUExampleScenario.node[7].veinsmobility 	minSpeed 	0.25456072320603
scalar RSUExampleScenario.node[7].veinsmobility 	maxSpeed 	18.999642314671
scalar RSUExampleScenario.node[7].veinsmobility 	totalDistance 	3409.5349761097
scalar RSUExampleScenario.node[7].veinsmobility 	totalCO2Emission 	706.84874717519
scalar RSUExampleScenario.node[8].veinsmobility 	startTime 	48.1
scalar RSUExampleScenario.node[8].veinsmobility 	totalTime 	226.9
scalar RSUExampleScenario.node[8].veinsmobility 	stopTime 	275.1
scalar RSUExampleScenario.node[8].veinsmobility 	minSpeed 	0.25399356294167
scalar RSUExampleScenario.node[8].veinsmobility 	maxSpeed 	18.999916304697
scalar RSUExampleScenario.node[8].veinsmobility 	totalDistance 	3409.9224471697
scalar RSUExampleScenario.node[8].veinsmobility 	totalCO2Emission 	711.25412768549
scalar RSUExampleScenario.node[9].veinsmobility 	startTime 	54.1
scalar RSUExampleScenario.node[9].veinsmobility 	totalTime 	226.9
scalar RSUExampleScenario.node[9].veinsmobility 	stopTime 	281.1
scalar RSUExampleScenario.node[9].veinsmobility 	minSpeed 	0.25550756073534
scalar RSUExampleScenario.node[9].veinsmobility 	maxSpeed 	18.999770912831
scalar RSUExampleScenario.node[9].veinsmobility 	totalDistance 	3409.4432081274
scalar RSUExampleScenario.node[9].veinsmobility 	totalCO2Emission 	706.15098131104
scalar RSUExampleScenario.node[10].veinsmobility 	startTime 	60.1
scalar RSUExampleScenario.node[10].veinsmobility 	totalTime 	226.8
scalar RSUExampleScenario.node[10].veinsmobility 	stopTime 	287
scalar RSUExampleScenario.node[10].veinsmobility 	minSpeed 	0.25484324031603
scalar RSUExampleScenario.node[10].veinsmobility 	maxSpeed 	18.999988202357
scalar RSUExampleScenario.node[10].veinsmobility 	totalDistance 	3409.5870143803
scalar RSUExampleScenario.node[10].veinsmobility 	totalCO2Emission 	708.10692569865
scalar RSUExampleScenario.node[11].veinsmobility 	startTime 	66.1
scalar RSUExampleScenario.node[11].veinsmobility 	totalTime 	226.7
scalar RSUExampleScenario.node[11].veinsmobility 	stopTime 	292.9
scalar RSUExampleScenario.node[11].veinsmobility 	minSpeed 	0.25845482638292
scalar RSUExampleScenario.node[11].veinsmobility 	maxSpeed 	18.999977723218
scalar RSUExampleScenario.node[11].veinsmobility 	totalDistance 	3409.7189553207
scalar RSUExampleScenario.node[11].veinsmobility 	totalCO2Emission 	705.52328158792
scalar RSUExampleScenario.node[12].veinsmobility 	startTime 	72.1
scalar RSUExampleScenario.node[12].veinsmobility 	totalTime 	227.1
scalar RSUExampleScenario.node[12].veinsmobility 	stopTime 	299.3
scalar RSUExampleScenario.node[12].veinsmobility 	minSpeed 	0.25166701828106
scalar RSUExampleScenario.node[12].veinsmobility 	maxSpeed 	18.999873491572
scalar RSUExampleScenario.node[12].veinsmobility 	totalDistance 	3409.4622965822
scalar RSUExampleScenario.node[12].veinsmobility 	totalCO2Emission 	706.2361167845
scalar RSUExampleScenario.node[13].veinsmobility 	startTime 	78.1
scalar RSUExampleScenario.node[13].veinsmobility 	totalTime 	227.2
scalar RSUExampleScenario.node[13].veinsmobility 	stopTime 	305.4
scalar RSUExampleScenario.node[13].veinsmobility 	minSpeed 	0.25313854919164
scalar RSUExampleScenario.node[13].veinsmobility 	maxSpeed 	18.999909310704
scalar RSUExampleScenario.node[13].veinsmobility 	totalDistance 	3409.6904586336
scalar RSUExampleScenario.node[13].veinsmobility 	totalCO2Emission 	705.32333685525
scalar RSUExampleScenario.node[14].veinsmobility 	startTime 	84.1
scalar RSUExampleScenario.node[14].veinsmobility 	totalTime 	227.1
scalar RSUExampleScenario.node[14].veinsmobility 	stopTime 	311.3
scalar RSUExampleScenario.node[14].veinsmobility 	minSpeed 	0.25547876113327
scalar RSUExampleScenario.node[14].veinsmobility 	maxSpeed 	18.999840581527
scalar RSUExampleScenario.node[14].veinsmobility 	totalDistance 	3409.4034520488
scalar RSUExampleScenario.node[14].veinsmobility 	totalCO2Emission 	701.62680543656
scalar RSUExampleScenario.node[15].veinsmobility 	startTime 	90.1
scalar RSUExampleScenario.node[15].veinsmobility 	totalTime 	226.8
scalar RSUExampleScenario.node[15].veinsmobility 	stopTime 	317
scalar RSUExampleScenario.node[15].veinsmobility 	minSpeed 	0.24868843742297
scalar RSUExampleScenario.node[15].veinsmobility 	maxSpeed 	18.999252093318
scalar RSUExampleScenario.node[15].veinsmobility 	totalDistance 	3409.3538914354
scalar RSUExampleScenario.node[15].veinsmobility 	totalCO2Emission 	706.27109208526
scalar RSUExampleScenario.node[16].veinsmobility 	startTime 	96.1
scalar RSUExampleScenario.node[16].veinsmobility 	totalTime 	226.9
scalar RSUExampleScenario.node[16].veinsmobility 	stopTime 	323.1
scalar RSUExampleScenario.node[16].veinsmobility 	minSpeed 	0.25930659341346
scalar RSUExampleScenario.node[16].veinsmobility 	maxSpeed 	18.999763025297
scalar RSUExampleScenario.node[16].veinsmobility 	totalDistance 	3409.4285333658
scalar RSUExampleScenario.node[16].veinsmobility 	totalCO2Emission 	708.4217962217
scalar RSUExampleScenario.node[17].veinsmobility 	startTime 	102.1
scalar RSUExampleScenario.node[17].veinsmobility 	totalTime 	226.6
scalar RSUExampleScenario.node[17].veinsmobility 	stopTime 	328.8
scalar RSUExampleScenario.node[17].veinsmobility 	minSpeed 	0.2578816487405
scalar RSUExampleScenario.node[17].veinsmobility 	maxSpeed 	18.999974295187
scalar RSUExampleScenario.node[17].veinsmobility 	totalDistance 	3409.4320476321
scalar RSUExampleScenario.node[17].veinsmobility 	totalCO2Emission 	708.64641969068
scalar RSUExampleScenario.node[18].veinsmobility 	startTime 	108.1
scalar RSUExampleScenario.node[18].veinsmobility 	totalTime 	227
scalar RSUExampleScenario.node[18].veinsmobility 	stopTime 	335.2
scalar RSUExampleScenario.node[18].veinsmobility 	minSpeed 	0.25667754603829
scalar RSUExampleScenario.node[18].veinsmobility 	maxSpeed 	18.999970999367
scalar RSUExampleScenario.node[18].veinsmobility 	totalDistance 	3409.3759182369
scalar RSUExampleScenario.node[18].veinsmobility 	totalCO2Emission 	706.17324398396
scalar RSUExampleScenario.node[19].veinsmobility 	startTime 	114.1
scalar RSUExampleScenario.node[19].veinsmobility 	totalTime 	226.9
scalar RSUExampleScenario.node[19].veinsmobility 	stopTime 	341.1
scalar RSUExampleScenario.node[19].veinsmobility 	minSpeed 	0.25948909645481
scalar RSUExampleScenario.node[19].veinsmobility 	maxSpeed 	18.999838168169
scalar RSUExampleScenario.node[19].veinsmobility 	totalDistance 	3409.6523737004
scalar RSUExampleScenario.node[19].veinsmobility 	totalCO2Emission 	705.27242629675
scalar RSUExampleScenario.node[20].veinsmobility 	startTime 	120.1
scalar RSUExampleScenario.node[20].veinsmobility 	totalTime 	227
scalar RSUExampleScenario.node[20].veinsmobility 	stopTime 	347.2
scalar RSUExampleScenario.node[20].veinsmobility 	minSpeed 	0.25021363737318
scalar RSUExampleScenario.node[20].veinsmobility 	maxSpeed 	18.999797162286
scalar RSUExampleScenario.node[20].veinsmobility 	totalDistance 	3409.6115989144
scalar RSUExampleScenario.node[20].veinsmobility 	totalCO2Emission 	708.73936036151
scalar RSUExampleScenario.node[21].veinsmobility 	startTime 	126.1
scalar RSUExampleScenario.node[21].veinsmobility 	totalTime 	226.8
scalar RSUExampleScenario.node[21].veinsmobility 	stopTime 	353
scalar RSUExampleScenario.node[21].veinsmobility 	minSpeed 	0.2573814871998
scalar RSUExampleScenario.node[21].veinsmobility 	maxSpeed 	18.999641050075
scalar RSUExampleScenario.node[21].veinsmobility 	totalDistance 	3409.5011087969
scalar RSUExampleScenario.node[21].veinsmobility 	totalCO2Emission 	706.89245402672
scalar RSUExampleScenario.node[22].veinsmobility 	startTime 	132.1
scalar RSUExampleScenario.node[22].veinsmobility 	totalTime 	226.9
scalar RSUExampleScenario.node[22].veinsmobility 	stopTime 	359.1
scalar RSUExampleScenario.node[22].veinsmobility 	minSpeed 	0.24952093203226
scalar RSUExampleScenario.node[22].veinsmobility 	maxSpeed 	18.999573893622
scalar RSUExampleScenario.node[22].veinsmobility 	totalDistance 	3409.2927868754
scalar RSUExampleScenario.node[22].veinsmobility 	totalCO2Emission 	708.42512499403
scalar RSUExampleScenario.node[23].veinsmobility 	startTime 	138.1
scalar RSUExampleScenario.node[23].veinsmobility 	totalTime 	226.9
scalar RSUExampleScenario.node[23].veinsmobility 	stopTime 	365.1
scalar RSUExampleScenario.node[23].veinsmobility 	minSpeed 	0.25502084233821
scalar RSUExampleScenario.node[23].veinsmobility 	maxSpeed 	18.999652817238
scalar RSUExampleScenario.node[23].veinsmobility 	totalDistance 	3409.5311634727
scalar RSUExampleScenario.node[23].veinsmobility 	totalCO2Emission 	709.91223343488
scalar RSUExampleScenario.node[24].veinsmobility 	startTime 	144.1
scalar RSUExampleScenario.node[24].veinsmobility 	totalTime 	226.8
scalar RSUExampleScenario.node[24].veinsmobility 	stopTime 	371
scalar RSUExampleScenario.node[24].veinsmobility 	minSpeed 	0.2507514198171
scalar RSUExampleScenario.node[24].veinsmobility 	maxSpeed 	18.999926561941
scalar RSUExampleScenario.node[24].veinsmobility 	totalDistance 	3409.5753476613
scalar RSUExampleScenario.node[24].veinsmobility 	totalCO2Emission 	705.65449329179
scalar RSUExampleScenario.node[25].veinsmobility 	startTime 	150.1
scalar RSUExampleScenario.node[25].veinsmobility 	totalTime 	226.6
scalar RSUExampleScenario.node[25].veinsmobility 	stopTime 	376.8
scalar RSUExampleScenario.node[25].veinsmobility 	minSpeed 	0.25583939001453
scalar RSUExampleScenario.node[25].veinsmobility 	maxSpeed 	18.999084557546
scalar RSUExampleScenario.node[25].veinsmobility 	totalDistance 	3409.292458983
scalar RSUExampleScenario.node[25].veinsmobility 	totalCO2Emission 	707.91429728984
scalar RSUExampleScenario.node[26].veinsmobility 	startTime 	156.1
scalar RSUExampleScenario.node[26].veinsmobility 	totalTime 	227
scalar RSUExampleScenario.node[26].veinsmobility 	stopTime 	383.2
scalar RSUExampleScenario.node[26].veinsmobility 	minSpeed 	0.24701202978007
scalar RSUExampleScenario.node[26].veinsmobility 	maxSpeed 	18.999622563904
scalar RSUExampleScenario.node[26].veinsmobility 	totalDistance 	3409.2255659391
scalar RSUExampleScenario.node[26].veinsmobility 	totalCO2Emission 	706.15963435206
scalar RSUExampleScenario.node[27].veinsmobility 	startTime 	162.1
scalar RSUExampleScenario.node[27].veinsmobility 	totalTime 	227
scalar RSUExampleScenario.node[27].veinsmobility 	stopTime 	389.2
scalar RSUExampleScenario.node[27].veinsmobility 	minSpeed 	0.24889148215228
scalar RSUExampleScenario.node[27].veinsmobility 	maxSpeed 	18.999965563631
scalar RSUExampleScenario.node[27].veinsmobility 	totalDistance 	3409.1841466282
scalar RSUExampleScenario.node[27].veinsmobility 	totalCO2Emission 	703.18806034192
scalar RSUExampleScenario.node[28].veinsmobility 	startTime 	168.1
scalar RSUExampleScenario.node[28].veinsmobility 	totalTime 	226.9
scalar RSUExampleScenario.node[28].veinsmobility 	stopTime 	395.1
scalar RSUExampleScenario.node[28].veinsmobility 	minSpeed 	0.25790071449499
scalar RSUExampleScenario.node[28].veinsmobility 	maxSpeed 	18.999976102095
scalar RSUExampleScenario.node[28].veinsmobility 	totalDistance 	3409.4555235557
scalar RSUExampleScenario.node[28].veinsmobility 	totalCO2Emission 	706.85288289274
scalar RSUExampleScenario.node[29].veinsmobility 	startTime 	174.1
scalar RSUExampleScenario.node[29].veinsmobility 	totalTime 	226.8
scalar RSUExampleScenario.node[29].veinsmobility 	stopTime 	401
scalar RSUExampleScenario.node[29].veinsmobility 	minSpeed 	0.25554486235371
scalar RSUExampleScenario.node[29].veinsmobility 	maxSpeed 	18.999726119635
scalar RSUExampleScenario.node[29].veinsmobility 	totalDistance 	3409.7091810448
scalar RSUExampleScenario.node[29].veinsmobility 	totalCO2Emission 	705.87878840788
scalar RSUExampleScenario.node[30].veinsmobility 	startTime 	180.1
scalar RSUExampleScenario.node[30].veinsmobility 	totalTime 	226.8
scalar RSUExampleScenario.node[30].veinsmobility 	stopTime 	407
scalar RSUExampleScenario.node[30].veinsmobility 	minSpeed 	0.24832187765138
scalar RSUExampleScenario.node[30].veinsmobility 	maxSpeed 	18.999518059301
scalar RSUExampleScenario.node[30].veinsmobility 	totalDistance 	3409.0378697309
scalar RSUExampleScenario.node[30].veinsmobility 	totalCO2Emission 	706.20076137824
scalar RSUExampleScenario.node[31].veinsmobility 	startTime 	186.1
scalar RSUExampleScenario.node[31].veinsmobility 	totalTime 	227.1
scalar RSUExampleScenario.node[31].veinsmobility 	stopTime 	413.3
scalar RSUExampleScenario.node[31].veinsmobility 	minSpeed 	0.25284780764696
scalar RSUExampleScenario.node[31].veinsmobility 	maxSpeed 	18.999994906595
scalar RSUExampleScenario.node[31].veinsmobility 	totalDistance 	3409.3856309966
scalar RSUExampleScenario.node[31].veinsmobility 	totalCO2Emission 	710.60175840627
scalar RSUExampleScenario.node[32].veinsmobility 	startTime 	192.1
scalar RSUExampleScenario.node[32].veinsmobility 	totalTime 	226.8
scalar RSUExampleScenario.node[32].veinsmobility 	stopTime 	419
scalar RSUExampleScenario.node[32].veinsmobility 	minSpeed 	0.24718034922308
scalar RSUExampleScenario.node[32].veinsmobility 	maxSpeed 	18.999974391621
scalar RSUExampleScenario.node[32].veinsmobility 	totalDistance 	3409.7870761891
scalar RSUExampleScenario.node[32].veinsmobility 	totalCO2Emission 	708.83958594171
scalar RSUExampleScenario.node[33].veinsmobility 	startTime 	198.1
scalar RSUExampleScenario.node[33].veinsmobility 	totalTime 	227
scalar RSUExampleScenario.node[33].veinsmobility 	stopTime 	425.2
scalar RSUExampleScenario.node[33].veinsmobility 	minSpeed 	0.2599884394554
scalar RSUExampleScenario.node[33].veinsmobility 	maxSpeed 	18.999970668931
scalar RSUExampleScenario.node[33].veinsmobility 	totalDistance 	3409.2590487111
scalar RSUExampleScenario.node[33].veinsmobility 	totalCO2Emission 	708.06755365907
scalar RSUExampleScenario.node[34].veinsmobility 	startTime 	204.1
scalar RSUExampleScenario.node[34].veinsmobility 	totalTime 	227
scalar RSUExampleScenario.node[34].veinsmobility 	stopTime 	431.2
scalar RSUExampleScenario.node[34].veinsmobility 	minSpeed 	0.24977397773322
scalar RSUExampleScenario.node[34].veinsmobility 	maxSpeed 	18.99952226537
scalar RSUExampleScenario.node[34].veinsmobility 	totalDistance 	3409.3070397769
scalar RSUExampleScenario.node[34].veinsmobility 	totalCO2Emission 	705.09376741498
scalar RSUExampleScenario.node[35].veinsmobility 	startTime 	210.1
scalar RSUExampleScenario.node[35].veinsmobility 	totalTime 	226.8
scalar RSUExampleScenario.node[35].veinsmobility 	stopTime 	437
scalar RSUExampleScenario.node[35].veinsmobility 	minSpeed 	0.24780147231114
scalar RSUExampleScenario.node[35].veinsmobility 	maxSpeed 	18.999898512843
scalar RSUExampleScenario.node[35].veinsmobility 	totalDistance 	3409.2547505455
scalar RSUExampleScenario.node[35].veinsmobility 	totalCO2Emission 	703.71927589129
scalar RSUExampleScenario.node[36].veinsmobility 	startTime 	216.1
scalar RSUExampleScenario.node[36].veinsmobility 	totalTime 	226.9
scalar RSUExampleScenario.node[36].veinsmobility 	stopTime 	443.1
scalar RSUExampleScenario.node[36].veinsmobility 	minSpeed 	0.25784633934265
scalar RSUExampleScenario.node[36].veinsmobility 	maxSpeed 	18.999875532785
scalar RSUExampleScenario.node[36].veinsmobility 	totalDistance 	3409.8036318925
scalar RSUExampleScenario.node[36].veinsmobility 	totalCO2Emission 	708.75945435604
scalar RSUExampleScenario.node[37].veinsmobility 	startTime 	222.1
scalar RSUExampleScenario.node[37].veinsmobility 	totalTime 	226.7
scalar RSUExampleScenario.node[37].veinsmobility 	stopTime 	448.9
scalar RSUExampleScenario.node[37].veinsmobility 	minSpeed 	0.25296296694898
scalar RSUExampleScenario.node[37].veinsmobility 	maxSpeed 	18.999945329968
scalar RSUExampleScenario.node[37].veinsmobility 	totalDistance 	3409.4331706293
scalar RSUExampleScenario.node[37].veinsmobility 	totalCO2Emission 	708.0536997186
scalar RSUExampleScenario.node[38].veinsmobility 	startTime 	228.1
scalar RSUExampleScenario.node[38].veinsmobility 	totalTime 	226.8
scalar RSUExampleScenario.node[38].veinsmobility 	stopTime 	455
scalar RSUExampleScenario.node[38].veinsmobility 	minSpeed 	0.24843470909423
scalar RSUExampleScenario.node[38].veinsmobility 	maxSpeed 	18.99992549218
scalar RSUExampleScenario.node[38].veinsmobility 	totalDistance 	3409.6073783381
scalar RSUExampleScenario.node[38].veinsmobility 	totalCO2Emission 	708.05124567948
scalar RSUExampleScenario.node[39].veinsmobility 	startTime 	234.1
scalar RSUExampleScenario.node[39].veinsmobility 	totalTime 	226.9
scalar RSUExampleScenario.node[39].veinsmobility 	stopTime 	461.1
scalar RSUExampleScenario.node[39].veinsmobility 	minSpeed 	0.24716865831427
scalar RSUExampleScenario.node[39].veinsmobility 	maxSpeed 	18.999858355552
scalar RSUExampleScenario.node[39].veinsmobility 	totalDistance 	3409.4466662503
scalar RSUExampleScenario.node[39].veinsmobility 	totalCO2Emission 	705.62648290934
scalar RSUExampleScenario.node[40].veinsmobility 	startTime 	240.1
scalar RSUExampleScenario.node[40].veinsmobility 	totalTime 	227
scalar RSUExampleScenario.node[40].veinsmobility 	stopTime 	467.2
scalar RSUExampleScenario.node[40].veinsmobility 	minSpeed 	0.25769168499834
scalar RSUExampleScenario.node[40].veinsmobility 	maxSpeed 	18.999810421448
scalar RSUExampleScenario.node[40].veinsmobility 	totalDistance 	3409.8132825224
scalar RSUExampleScenario.node[40].veinsmobility 	totalCO2Emission 	708.34613410628
scalar RSUExampleScenario.node[41].veinsmobility 	startTime 	246.1
scalar RSUExampleScenario.node[41].veinsmobility 	totalTime 	226.7
scalar RSUExampleScenario.node[41].veinsmobility 	stopTime 	472.9
scalar RSUExampleScenario.node[41].veinsmobility 	minSpeed 	0.24904440985038
scalar RSUExampleScenario.node[41].veinsmobility 	maxSpeed 	18.999629384794
scalar RSUExampleScenario.node[41].veinsmobility 	totalDistance 	3409.0978887074
scalar RSUExampleScenario.node[41].veinsmobility 	totalCO2Emission 	704.86724221292
scalar RSUExampleScenario.node[42].veinsmobility 	startTime 	252.1
scalar RSUExampleScenario.node[42].veinsmobility 	totalTime 	226.7
scalar RSUExampleScenario.node[42].veinsmobility 	stopTime 	478.9
scalar RSUExampleScenario.node[42].veinsmobility 	minSpeed 	0.25999851224688
scalar RSUExampleScenario.node[42].veinsmobility 	maxSpeed 	18.999658747432
scalar RSUExampleScenario.node[42].veinsmobility 	totalDistance 	3409.4587036846
scalar RSUExampleScenario.node[42].veinsmobility 	totalCO2Emission 	704.92005849931
scalar RSUExampleScenario.node[43].veinsmobility 	startTime 	258.1
scalar RSUExampleScenario.node[43].veinsmobility 	totalTime 	226.7
scalar RSUExampleScenario.node[43].veinsmobility 	stopTime 	484.9
scalar RSUExampleScenario.node[43].veinsmobility 	minSpeed 	0.25369596888288
scalar RSUExampleScenario.node[43].veinsmobility 	maxSpeed 	18.999888472226
scalar RSUExampleScenario.node[43].veinsmobility 	totalDistance 	3409.0667921421
scalar RSUExampleScenario.node[43].veinsmobility 	totalCO2Emission 	702.8732773226
scalar RSUExampleScenario.node[44].veinsmobility 	startTime 	264.1
scalar RSUExampleScenario.node[44].veinsmobility 	totalTime 	226.7
scalar RSUExampleScenario.node[44].veinsmobility 	stopTime 	490.9
scalar RSUExampleScenario.node[44].veinsmobility 	minSpeed 	0.25201797003392
scalar RSUExampleScenario.node[44].veinsmobility 	maxSpeed 	18.999959871797
scalar RSUExampleScenario.node[44].veinsmobility 	totalDistance 	3409.164500356
scalar RSUExampleScenario.node[44].veinsmobility 	totalCO2Emission 	703.54675210558
scalar RSUExampleScenario.node[45].veinsmobility 	startTime 	270.1
scalar RSUExampleScenario.node[45].veinsmobility 	totalTime 	226.9
scalar RSUExampleScenario.node[45].veinsmobility 	stopTime 	497.1
scalar RSUExampleScenario.node[45].veinsmobility 	minSpeed 	0.2540325343085
scalar RSUExampleScenario.node[45].veinsmobility 	maxSpeed 	18.99993989402
scalar RSUExampleScenario.node[45].veinsmobility 	totalDistance 	3409.1067595448
scalar RSUExampleScenario.node[45].veinsmobility 	totalCO2Emission 	706.60086304683
scalar RSUExampleScenario.node[46].veinsmobility 	startTime 	276.1
scalar RSUExampleScenario.node[46].veinsmobility 	totalTime 	226.9
scalar RSUExampleScenario.node[46].veinsmobility 	stopTime 	503.1
scalar RSUExampleScenario.node[46].veinsmobility 	minSpeed 	0.25534543852578
scalar RSUExampleScenario.node[46].veinsmobility 	maxSpeed 	18.99942939451
scalar RSUExampleScenario.node[46].veinsmobility 	totalDistance 	3409.2325037473
scalar RSUExampleScenario.node[46].veinsmobility 	totalCO2Emission 	705.50428789308
scalar RSUExampleScenario.node[47].veinsmobility 	startTime 	282.1
scalar RSUExampleScenario.node[47].veinsmobility 	totalTime 	226.7
scalar RSUExampleScenario.node[47].veinsmobility 	stopTime 	508.9
scalar RSUExampleScenario.node[47].veinsmobility 	minSpeed 	0.25625310844579
scalar RSUExampleScenario.node[47].veinsmobility 	maxSpeed 	18.999988049988
scalar RSUExampleScenario.node[47].veinsmobility 	totalDistance 	3409.4451221058
scalar RSUExampleScenario.node[47].veinsmobility 	totalCO2Emission 	706.24884874647
scalar RSUExampleScenario.node[48].veinsmobility 	startTime 	288.1
scalar RSUExampleScenario.node[48].veinsmobility 	totalTime 	226.8
scalar RSUExampleScenario.node[48].veinsmobility 	stopTime 	515
scalar RSUExampleScenario.node[48].veinsmobility 	minSpeed 	0.2486780734323
scalar RSUExampleScenario.node[48].veinsmobility 	maxSpeed 	18.999986364031
scalar RSUExampleScenario.node[48].veinsmobility 	totalDistance 	3409.1470851603
scalar RSUExampleScenario.node[48].veinsmobility 	totalCO2Emission 	708.14613594291
scalar RSUExampleScenario.node[49].veinsmobility 	startTime 	294.1
scalar RSUExampleScenario.node[49].veinsmobility 	totalTime 	226.7
scalar RSUExampleScenario.node[49].veinsmobility 	stopTime 	520.9
scalar RSUExampleScenario.node[49].veinsmobility 	minSpeed 	0.25983650131756
scalar RSUExampleScenario.node[49].veinsmobility 	maxSpeed 	18.999942893516
scalar RSUExampleScenario.node[49].veinsmobility 	totalDistance 	3409.5385482828
scalar RSUExampleScenario.node[49].veinsmobility 	totalCO2Emission 	708.10668735028
scalar RSUExampleScenario.node[50].veinsmobility 	startTime 	300.1
scalar RSUExampleScenario.node[50].veinsmobility 	totalTime 	227
scalar RSUExampleScenario.node[50].veinsmobility 	stopTime 	527.2
scalar RSUExampleScenario.node[50].veinsmobility 	minSpeed 	0.25053243018338
scalar RSUExampleScenario.node[50].veinsmobility 	maxSpeed 	18.999958861058
scalar RSUExampleScenario.node[50].veinsmobility 	totalDistance 	3409.6890431015
scalar RSUExampleScenario.node[50].veinsmobility 	totalCO2Emission 	705.82455691976
scalar RSUExampleScenario.node[51].veinsmobility 	startTime 	306.1
scalar RSUExampleScenario.node[51].veinsmobility 	totalTime 	227
scalar RSUExampleScenario.node[51].veinsmobility 	stopTime 	533.2
scalar RSUExampleScenario.node[51].veinsmobility 	minSpeed 	0.25254275997006
scalar RSUExampleScenario.node[51].veinsmobility 	maxSpeed 	18.999970889585
scalar RSUExampleScenario.node[51].veinsmobility 	totalDistance 	3409.7105996552
scalar RSUExampleScenario.node[51].veinsmobility 	totalCO2Emission 	707.81970296865
scalar RSUExampleScenario.node[52].veinsmobility 	startTime 	312.1
scalar RSUExampleScenario.node[52].veinsmobility 	totalTime 	226.9
scalar RSUExampleScenario.node[52].veinsmobility 	stopTime 	539.1
scalar RSUExampleScenario.node[52].veinsmobility 	minSpeed 	0.24775361124356
scalar RSUExampleScenario.node[52].veinsmobility 	maxSpeed 	18.999948454865
scalar RSUExampleScenario.node[52].veinsmobility 	totalDistance 	3409.4746247641
scalar RSUExampleScenario.node[52].veinsmobility 	totalCO2Emission 	701.10756748444
scalar RSUExampleScenario.node[53].veinsmobility 	startTime 	318.1
scalar RSUExampleScenario.node[53].veinsmobility 	totalTime 	226.8
scalar RSUExampleScenario.node[53].veinsmobility 	stopTime 	545
scalar RSUExampleScenario.node[53].veinsmobility 	minSpeed 	0.24883791479794
scalar RSUExampleScenario.node[53].veinsmobility 	maxSpeed 	18.999733472364
scalar RSUExampleScenario.node[53].veinsmobility 	totalDistance 	3409.4109971872
scalar RSUExampleScenario.node[53].veinsmobility 	totalCO2Emission 	709.08581628966
scalar RSUExampleScenario.node[54].veinsmobility 	startTime 	324.1
scalar RSUExampleScenario.node[54].veinsmobility 	totalTime 	226.8
scalar RSUExampleScenario.node[54].veinsmobility 	stopTime 	551
scalar RSUExampleScenario.node[54].veinsmobility 	minSpeed 	0.25291506559774
scalar RSUExampleScenario.node[54].veinsmobility 	maxSpeed 	18.999977361697
scalar RSUExampleScenario.node[54].veinsmobility 	totalDistance 	3409.4810200301
scalar RSUExampleScenario.node[54].veinsmobility 	totalCO2Emission 	706.65396451432
scalar RSUExampleScenario.node[55].veinsmobility 	startTime 	330.1
scalar RSUExampleScenario.node[55].veinsmobility 	totalTime 	227
scalar RSUExampleScenario.node[55].veinsmobility 	stopTime 	557.2
scalar RSUExampleScenario.node[55].veinsmobility 	minSpeed 	0.25147740352876
scalar RSUExampleScenario.node[55].veinsmobility 	maxSpeed 	18.999995046705
scalar RSUExampleScenario.node[55].veinsmobility 	totalDistance 	3409.4118247438
scalar RSUExampleScenario.node[55].veinsmobility 	totalCO2Emission 	712.81833737132
scalar RSUExampleScenario.node[56].veinsmobility 	startTime 	336.1
scalar RSUExampleScenario.node[56].veinsmobility 	totalTime 	227.1
scalar RSUExampleScenario.node[56].veinsmobility 	stopTime 	563.3
scalar RSUExampleScenario.node[56].veinsmobility 	minSpeed 	0.24857630047598
scalar RSUExampleScenario.node[56].veinsmobility 	maxSpeed 	18.999863430858
scalar RSUExampleScenario.node[56].veinsmobility 	totalDistance 	3410.0500614774
scalar RSUExampleScenario.node[56].veinsmobility 	totalCO2Emission 	708.09692016655
scalar RSUExampleScenario.node[57].veinsmobility 	startTime 	342.1
scalar RSUExampleScenario.node[57].veinsmobility 	totalTime 	226.9
scalar RSUExampleScenario.node[57].veinsmobility 	stopTime 	569.1
scalar RSUExampleScenario.node[57].veinsmobility 	minSpeed 	0.25295009811618
scalar RSUExampleScenario.node[57].veinsmobility 	maxSpeed 	18.999803034093
scalar RSUExampleScenario.node[57].veinsmobility 	totalDistance 	3409.1573689767
scalar RSUExampleScenario.node[57].veinsmobility 	totalCO2Emission 	706.92405335131
scalar RSUExampleScenario.node[58].veinsmobility 	startTime 	348.1
scalar RSUExampleScenario.node[58].veinsmobility 	totalTime 	226.9
scalar RSUExampleScenario.node[58].veinsmobility 	stopTime 	575.1
scalar RSUExampleScenario.node[58].veinsmobility 	minSpeed 	0.24928107341984
scalar RSUExampleScenario.node[58].veinsmobility 	maxSpeed 	18.999941037241
scalar RSUExampleScenario.node[58].veinsmobility 	totalDistance 	3409.0890178128
scalar RSUExampleScenario.node[58].veinsmobility 	totalCO2Emission 	708.82137251638
scalar RSUExampleScenario.node[59].veinsmobility 	startTime 	354.1
scalar RSUExampleScenario.node[59].veinsmobility 	totalTime 	226.8
scalar RSUExampleScenario.node[59].veinsmobility 	stopTime 	581
scalar RSUExampleScenario.node[59].veinsmobility 	minSpeed 	0.25417870082008
scalar RSUExampleScenario.node[59].veinsmobility 	maxSpeed 	18.999999930656
scalar RSUExampleScenario.node[59].veinsmobility 	totalDistance 	3409.1733907918
scalar RSUExampleScenario.node[59].veinsmobility 	totalCO2Emission 	705.7007697698
scalar RSUExampleScenario.node[60].veinsmobility 	startTime 	360.1
scalar RSUExampleScenario.node[60].veinsmobility 	totalTime 	227
scalar RSUExampleScenario.node[60].veinsmobility 	stopTime 	587.2
scalar RSUExampleScenario.node[60].veinsmobility 	minSpeed 	0.25633919093339
scalar RSUExampleScenario.node[60].veinsmobility 	maxSpeed 	18.999950837379
scalar RSUExampleScenario.node[60].veinsmobility 	totalDistance 	3409.6139473463
scalar RSUExampleScenario.node[60].veinsmobility 	totalCO2Emission 	708.39632686504
scalar RSUExampleScenario.node[61].veinsmobility 	startTime 	366.1
scalar RSUExampleScenario.node[61].veinsmobility 	totalTime 	226.9
scalar RSUExampleScenario.node[61].veinsmobility 	stopTime 	593.1
scalar RSUExampleScenario.node[61].veinsmobility 	minSpeed 	0.25379407031159
scalar RSUExampleScenario.node[61].veinsmobility 	maxSpeed 	18.999652742567
scalar RSUExampleScenario.node[61].veinsmobility 	totalDistance 	3409.6515689459
scalar RSUExampleScenario.node[61].veinsmobility 	totalCO2Emission 	703.20134217656
scalar RSUExampleScenario.node[62].veinsmobility 	startTime 	372.1
scalar RSUExampleScenario.node[62].veinsmobility 	totalTime 	227
scalar RSUExampleScenario.node[62].veinsmobility 	stopTime 	599.2
scalar RSUExampleScenario.node[62].veinsmobility 	minSpeed 	0.25012001378392
scalar RSUExampleScenario.node[62].veinsmobility 	maxSpeed 	18.999935895225
scalar RSUExampleScenario.node[62].veinsmobility 	totalDistance 	3409.7526237646
scalar RSUExampleScenario.node[62].veinsmobility 	totalCO2Emission 	709.90780569656
scalar RSUExampleScenario.node[63].veinsmobility 	startTime 	378.1
scalar RSUExampleScenario.node[63].veinsmobility 	totalTime 	226.8
scalar RSUExampleScenario.node[63].veinsmobility 	stopTime 	605
scalar RSUExampleScenario.node[63].veinsmobility 	minSpeed 	0.25789805880026
scalar RSUExampleScenario.node[63].veinsmobility 	maxSpeed 	18.99923008353
scalar RSUExampleScenario.node[63].veinsmobility 	totalDistance 	3409.7556715864
scalar RSUExampleScenario.node[63].veinsmobility 	totalCO2Emission 	710.3554420165
scalar RSUExampleScenario.node[64].veinsmobility 	startTime 	384.1
scalar RSUExampleScenario.node[64].veinsmobility 	totalTime 	227.1
scalar RSUExampleScenario.node[64].veinsmobility 	stopTime 	611.3
scalar RSUExampleScenario.node[64].veinsmobility 	minSpeed 	0.25189040033799
scalar RSUExampleScenario.node[64].veinsmobility 	maxSpeed 	18.999849836023
scalar RSUExampleScenario.node[64].veinsmobility 	totalDistance 	3409.7089484898
scalar RSUExampleScenario.node[64].veinsmobility 	totalCO2Emission 	704.53045583339
scalar RSUExampleScenario.node[65].veinsmobility 	startTime 	390.1
scalar RSUExampleScenario.node[65].veinsmobility 	totalTime 	227
scalar RSUExampleScenario.node[65].veinsmobility 	stopTime 	617.2
scalar RSUExampleScenario.node[65].veinsmobility 	minSpeed 	0.25528010714427
scalar RSUExampleScenario.node[65].veinsmobility 	maxSpeed 	18.999940785049
scalar RSUExampleScenario.node[65].veinsmobility 	totalDistance 	3409.5523699872
scalar RSUExampleScenario.node[65].veinsmobility 	totalCO2Emission 	706.22603601287
scalar RSUExampleScenario.node[66].veinsmobility 	startTime 	396.1
scalar RSUExampleScenario.node[66].veinsmobility 	totalTime 	226.9
scalar RSUExampleScenario.node[66].veinsmobility 	stopTime 	623.1
scalar RSUExampleScenario.node[66].veinsmobility 	minSpeed 	0.25244478606945
scalar RSUExampleScenario.node[66].veinsmobility 	maxSpeed 	18.999737844726
scalar RSUExampleScenario.node[66].veinsmobility 	totalDistance 	3409.2418486997
scalar RSUExampleScenario.node[66].veinsmobility 	totalCO2Emission 	706.09472868678
scalar RSUExampleScenario.node[67].veinsmobility 	startTime 	402.1
scalar RSUExampleScenario.node[67].veinsmobility 	totalTime 	226.9
scalar RSUExampleScenario.node[67].veinsmobility 	stopTime 	629.1
scalar RSUExampleScenario.node[67].veinsmobility 	minSpeed 	0.24856084590685
scalar RSUExampleScenario.node[67].veinsmobility 	maxSpeed 	18.999966180916
scalar RSUExampleScenario.node[67].veinsmobility 	totalDistance 	3409.3796438024
scalar RSUExampleScenario.node[67].veinsmobility 	totalCO2Emission 	702.78632531913
scalar RSUExampleScenario.node[68].veinsmobility 	startTime 	408.1
scalar RSUExampleScenario.node[68].veinsmobility 	totalTime 	227
scalar RSUExampleScenario.node[68].veinsmobility 	stopTime 	635.2
scalar RSUExampleScenario.node[68].veinsmobility 	minSpeed 	0.25689753773902
scalar RSUExampleScenario.node[68].veinsmobility 	maxSpeed 	18.999876896963
scalar RSUExampleScenario.node[68].veinsmobility 	totalDistance 	3409.3516329393
scalar RSUExampleScenario.node[68].veinsmobility 	totalCO2Emission 	711.59155468269
scalar RSUExampleScenario.node[69].veinsmobility 	startTime 	414.1
scalar RSUExampleScenario.node[69].veinsmobility 	totalTime 	226.8
scalar RSUExampleScenario.node[69].veinsmobility 	stopTime 	641
scalar RSUExampleScenario.node[69].veinsmobility 	minSpeed 	0.24760104262363
scalar RSUExampleScenario.node[69].veinsmobility 	maxSpeed 	18.999990322085
scalar RSUExampleScenario.node[69].veinsmobility 	totalDistance 	3409.6723315581
scalar RSUExampleScenario.node[69].veinsmobility 	totalCO2Emission 	706.81244555739
scalar RSUExampleScenario.node[70].veinsmobility 	startTime 	420.1
scalar RSUExampleScenario.node[70].veinsmobility 	totalTime 	226.9
scalar RSUExampleScenario.node[70].veinsmobility 	stopTime 	647.1
scalar RSUExampleScenario.node[70].veinsmobility 	minSpeed 	0.257975630061
scalar RSUExampleScenario.node[70].veinsmobility 	maxSpeed 	18.999997496111
scalar RSUExampleScenario.node[70].veinsmobility 	totalDistance 	3409.3477595463
scalar RSUExampleScenario.node[70].veinsmobility 	totalCO2Emission 	705.70283343674
scalar RSUExampleScenario.node[71].veinsmobility 	startTime 	426.1
scalar RSUExampleScenario.node[71].veinsmobility 	totalTime 	226.9
scalar RSUExampleScenario.node[71].veinsmobility 	stopTime 	653.1
scalar RSUExampleScenario.node[71].veinsmobility 	minSpeed 	0.25981803056807
scalar RSUExampleScenario.node[71].veinsmobility 	maxSpeed 	18.999999026521
scalar RSUExampleScenario.node[71].veinsmobility 	totalDistance 	3409.0515838447
scalar RSUExampleScenario.node[71].veinsmobility 	totalCO2Emission 	706.03973919662
scalar RSUExampleScenario.node[72].veinsmobility 	startTime 	432.1
scalar RSUExampleScenario.node[72].veinsmobility 	totalTime 	226.7
scalar RSUExampleScenario.node[72].veinsmobility 	stopTime 	658.9
scalar RSUExampleScenario.node[72].veinsmobility 	minSpeed 	0.25287959951465
scalar RSUExampleScenario.node[72].veinsmobility 	maxSpeed 	18.999632594078
scalar RSUExampleScenario.node[72].veinsmobility 	totalDistance 	3409.7733660959
scalar RSUExampleScenario.node[72].veinsmobility 	totalCO2Emission 	708.75998507818
scalar RSUExampleScenario.node[73].veinsmobility 	startTime 	438.1
scalar RSUExampleScenario.node[73].veinsmobility 	totalTime 	226.8
scalar RSUExampleScenario.node[73].veinsmobility 	stopTime 	665
scalar RSUExampleScenario.node[73].veinsmobility 	minSpeed 	0.24860370376753
scalar RSUExampleScenario.node[73].veinsmobility 	maxSpeed 	18.999840912083
scalar RSUExampleScenario.node[73].veinsmobility 	totalDistance 	3409.6446087787
scalar RSUExampleScenario.node[73].veinsmobility 	totalCO2Emission 	708.03171662929
scalar RSUExampleScenario.node[74].veinsmobility 	startTime 	444.1
scalar RSUExampleScenario.node[74].veinsmobility 	totalTime 	226.6
scalar RSUExampleScenario.node[74].veinsmobility 	stopTime 	670.8
scalar RSUExampleScenario.node[74].veinsmobility 	minSpeed 	0.25582931699906
scalar RSUExampleScenario.node[74].veinsmobility 	maxSpeed 	18.999918688694
scalar RSUExampleScenario.node[74].veinsmobility 	totalDistance 	3409.1548693478
scalar RSUExampleScenario.node[74].veinsmobility 	totalCO2Emission 	711.04695856203
scalar RSUExampleScenario.node[75].veinsmobility 	startTime 	450.1
scalar RSUExampleScenario.node[75].veinsmobility 	totalTime 	227
scalar RSUExampleScenario.node[75].veinsmobility 	stopTime 	677.2
scalar RSUExampleScenario.node[75].veinsmobility 	minSpeed 	0.2576073029933
scalar RSUExampleScenario.node[75].veinsmobility 	maxSpeed 	18.9999705728
scalar RSUExampleScenario.node[75].veinsmobility 	totalDistance 	3409.3443598706
scalar RSUExampleScenario.node[75].veinsmobility 	totalCO2Emission 	706.17256596009
scalar RSUExampleScenario.node[76].veinsmobility 	startTime 	456.1
scalar RSUExampleScenario.node[76].veinsmobility 	totalTime 	226.7
scalar RSUExampleScenario.node[76].veinsmobility 	stopTime 	682.9
scalar RSUExampleScenario.node[76].veinsmobility 	minSpeed 	0.25601880963217
scalar RSUExampleScenario.node[76].veinsmobility 	maxSpeed 	18.999691961126
scalar RSUExampleScenario.node[76].veinsmobility 	totalDistance 	3409.4698843968
scalar RSUExampleScenario.node[76].veinsmobility 	totalCO2Emission 	709.03269831203
scalar RSUExampleScenario.node[77].veinsmobility 	startTime 	462.1
scalar RSUExampleScenario.node[77].veinsmobility 	totalTime 	226.9
scalar RSUExampleScenario.node[77].veinsmobility 	stopTime 	689.1
scalar RSUExampleScenario.node[77].veinsmobility 	minSpeed 	0.25099643096956
scalar RSUExampleScenario.node[77].veinsmobility 	maxSpeed 	18.999953689591
scalar RSUExampleScenario.node[77].veinsmobility 	totalDistance 	3409.6813675294
scalar RSUExampleScenario.node[77].veinsmobility 	totalCO2Emission 	714.14564809172
scalar RSUExampleScenario.node[78].veinsmobility 	startTime 	468.1
scalar RSUExampleScenario.node[78].veinsmobility 	totalTime 	226.9
scalar RSUExampleScenario.node[78].veinsmobility 	stopTime 	695.1
scalar RSUExampleScenario.node[78].veinsmobility 	minSpeed 	0.25667887579859
scalar RSUExampleScenario.node[78].veinsmobility 	maxSpeed 	18.999790445941
scalar RSUExampleScenario.node[78].veinsmobility 	totalDistance 	3409.1212144465
scalar RSUExampleScenario.node[78].veinsmobility 	totalCO2Emission 	703.80137433305
scalar RSUExampleScenario.node[79].veinsmobility 	startTime 	474.1
scalar RSUExampleScenario.node[79].veinsmobility 	totalTime 	226.8
scalar RSUExampleScenario.node[79].veinsmobility 	stopTime 	701
scalar RSUExampleScenario.node[79].veinsmobility 	minSpeed 	0.25224417409301
scalar RSUExampleScenario.node[79].veinsmobility 	maxSpeed 	18.999845874549
scalar RSUExampleScenario.node[79].veinsmobility 	totalDistance 	3409.3285831094
scalar RSUExampleScenario.node[79].veinsmobility 	totalCO2Emission 	707.40668484164
scalar RSUExampleScenario.node[80].veinsmobility 	startTime 	480.1
scalar RSUExampleScenario.node[80].veinsmobility 	totalTime 	227
scalar RSUExampleScenario.node[80].veinsmobility 	stopTime 	707.2
scalar RSUExampleScenario.node[80].veinsmobility 	minSpeed 	0.25343982062885
scalar RSUExampleScenario.node[80].veinsmobility 	maxSpeed 	18.999995874625
scalar RSUExampleScenario.node[80].veinsmobility 	totalDistance 	3409.3537607707
scalar RSUExampleScenario.node[80].veinsmobility 	totalCO2Emission 	707.72059600072
scalar RSUExampleScenario.node[81].veinsmobility 	startTime 	486.1
scalar RSUExampleScenario.node[81].veinsmobility 	totalTime 	227
scalar RSUExampleScenario.node[81].veinsmobility 	stopTime 	713.2
scalar RSUExampleScenario.node[81].veinsmobility 	minSpeed 	0.25550734045403
scalar RSUExampleScenario.node[81].veinsmobility 	maxSpeed 	18.999324261725
scalar RSUExampleScenario.node[81].veinsmobility 	totalDistance 	3409.4488434348
scalar RSUExampleScenario.node[81].veinsmobility 	totalCO2Emission 	708.91185044448
scalar RSUExampleScenario.node[82].veinsmobility 	startTime 	492.1
scalar RSUExampleScenario.node[82].veinsmobility 	totalTime 	226.9
scalar RSUExampleScenario.node[82].veinsmobility 	stopTime 	719.1
scalar RSUExampleScenario.node[82].veinsmobility 	minSpeed 	0.25494243887742
scalar RSUExampleScenario.node[82].veinsmobility 	maxSpeed 	18.999872682237
scalar RSUExampleScenario.node[82].veinsmobility 	totalDistance 	3409.497507234
scalar RSUExampleScenario.node[82].veinsmobility 	totalCO2Emission 	707.52056207262
scalar RSUExampleScenario.node[83].veinsmobility 	startTime 	498.1
scalar RSUExampleScenario.node[83].veinsmobility 	totalTime 	227
scalar RSUExampleScenario.node[83].veinsmobility 	stopTime 	725.2
scalar RSUExampleScenario.node[83].veinsmobility 	minSpeed 	0.25427183490945
scalar RSUExampleScenario.node[83].veinsmobility 	maxSpeed 	18.999925792983
scalar RSUExampleScenario.node[83].veinsmobility 	totalDistance 	3409.838737655
scalar RSUExampleScenario.node[83].veinsmobility 	totalCO2Emission 	707.09771133239
scalar RSUExampleScenario.node[84].veinsmobility 	startTime 	504.1
scalar RSUExampleScenario.node[84].veinsmobility 	totalTime 	226.8
scalar RSUExampleScenario.node[84].veinsmobility 	stopTime 	731
scalar RSUExampleScenario.node[84].veinsmobility 	minSpeed 	0.25949715374969
scalar RSUExampleScenario.node[84].veinsmobility 	maxSpeed 	18.999802514119
scalar RSUExampleScenario.node[84].veinsmobility 	totalDistance 	3409.4640206108
scalar RSUExampleScenario.node[84].veinsmobility 	totalCO2Emission 	708.79978375418
scalar RSUExampleScenario.node[85].veinsmobility 	startTime 	510.1
scalar RSUExampleScenario.node[85].veinsmobility 	totalTime 	226.5
scalar RSUExampleScenario.node[85].veinsmobility 	stopTime 	736.7
scalar RSUExampleScenario.node[85].veinsmobility 	minSpeed 	0.25715741980309
scalar RSUExampleScenario.node[85].veinsmobility 	maxSpeed 	18.999808374001
scalar RSUExampleScenario.node[85].veinsmobility 	totalDistance 	3409.2743937662
scalar RSUExampleScenario.node[85].veinsmobility 	totalCO2Emission 	701.6614324825
scalar RSUExampleScenario.node[86].veinsmobility 	startTime 	516.1
scalar RSUExampleScenario.node[86].veinsmobility 	totalTime 	226.7
scalar RSUExampleScenario.node[86].veinsmobility 	stopTime 	742.9
scalar RSUExampleScenario.node[86].veinsmobility 	minSpeed 	0.25175201177201
scalar RSUExampleScenario.node[86].veinsmobility 	maxSpeed 	18.999952302501
scalar RSUExampleScenario.node[86].veinsmobility 	totalDistance 	3409.3881373038
scalar RSUExampleScenario.node[86].veinsmobility 	totalCO2Emission 	705.81775679591
scalar RSUExampleScenario.node[87].veinsmobility 	startTime 	522.1
scalar RSUExampleScenario.node[87].veinsmobility 	totalTime 	227
scalar RSUExampleScenario.node[87].veinsmobility 	stopTime 	749.2
scalar RSUExampleScenario.node[87].veinsmobility 	minSpeed 	0.2569577553235
scalar RSUExampleScenario.node[87].veinsmobility 	maxSpeed 	18.999958133053
scalar RSUExampleScenario.node[87].veinsmobility 	totalDistance 	3409.3841659856
scalar RSUExampleScenario.node[87].veinsmobility 	totalCO2Emission 	702.91437617298
scalar RSUExampleScenario.node[88].veinsmobility 	startTime 	528.1
scalar RSUExampleScenario.node[88].veinsmobility 	totalTime 	227
scalar RSUExampleScenario.node[88].veinsmobility 	stopTime 	755.2
scalar RSUExampleScenario.node[88].veinsmobility 	minSpeed 	0.24793956873962
scalar RSUExampleScenario.node[88].veinsmobility 	maxSpeed 	18.999717446344
scalar RSUExampleScenario.node[88].veinsmobility 	totalDistance 	3409.5390819291
scalar RSUExampleScenario.node[88].veinsmobility 	totalCO2Emission 	706.94290318708
scalar RSUExampleScenario.node[89].veinsmobility 	startTime 	534.1
scalar RSUExampleScenario.node[89].veinsmobility 	totalTime 	226.9
scalar RSUExampleScenario.node[89].veinsmobility 	stopTime 	761.1
scalar RSUExampleScenario.node[89].veinsmobility 	minSpeed 	0.25771611913689
scalar RSUExampleScenario.node[89].veinsmobility 	maxSpeed 	18.999889393039
scalar RSUExampleScenario.node[89].veinsmobility 	totalDistance 	3409.5295332547
scalar RSUExampleScenario.node[89].veinsmobility 	totalCO2Emission 	706.0824833734
scalar RSUExampleScenario.node[90].veinsmobility 	startTime 	540.1
scalar RSUExampleScenario.node[90].veinsmobility 	totalTime 	226.8
scalar RSUExampleScenario.node[90].veinsmobility 	stopTime 	767
scalar RSUExampleScenario.node[90].veinsmobility 	minSpeed 	0.25209805298643
scalar RSUExampleScenario.node[90].veinsmobility 	maxSpeed 	18.999763347681
scalar RSUExampleScenario.node[90].veinsmobility 	totalDistance 	3409.7291686404
scalar RSUExampleScenario.node[90].veinsmobility 	totalCO2Emission 	708.03167503248
scalar RSUExampleScenario.node[91].veinsmobility 	startTime 	546.1
scalar RSUExampleScenario.node[91].veinsmobility 	totalTime 	227.1
scalar RSUExampleScenario.node[91].veinsmobility 	stopTime 	773.3
scalar RSUExampleScenario.node[91].veinsmobility 	minSpeed 	0.25554955640039
scalar RSUExampleScenario.node[91].veinsmobility 	maxSpeed 	18.999907319283
scalar RSUExampleScenario.node[91].veinsmobility 	totalDistance 	3409.4181949732
scalar RSUExampleScenario.node[91].veinsmobility 	totalCO2Emission 	711.07798612233
scalar RSUExampleScenario.node[92].veinsmobility 	startTime 	552.1
scalar RSUExampleScenario.node[92].veinsmobility 	totalTime 	226.8
scalar RSUExampleScenario.node[92].veinsmobility 	stopTime 	779
scalar RSUExampleScenario.node[92].veinsmobility 	minSpeed 	0.24712428343738
scalar RSUExampleScenario.node[92].veinsmobility 	maxSpeed 	18.999680597435
scalar RSUExampleScenario.node[92].veinsmobility 	totalDistance 	3409.4664685226
scalar RSUExampleScenario.node[92].veinsmobility 	totalCO2Emission 	707.08874959032
scalar RSUExampleScenario.node[93].veinsmobility 	startTime 	558.1
scalar RSUExampleScenario.node[93].veinsmobility 	totalTime 	226.8
scalar RSUExampleScenario.node[93].veinsmobility 	stopTime 	785
scalar RSUExampleScenario.node[93].veinsmobility 	minSpeed 	0.25227033628221
scalar RSUExampleScenario.node[93].veinsmobility 	maxSpeed 	18.99974771905
scalar RSUExampleScenario.node[93].veinsmobility 	totalDistance 	3409.6608551804
scalar RSUExampleScenario.node[93].veinsmobility 	totalCO2Emission 	706.00263997669
scalar RSUExampleScenario.node[94].veinsmobility 	startTime 	564.1
scalar RSUExampleScenario.node[94].veinsmobility 	totalTime 	227.1
scalar RSUExampleScenario.node[94].veinsmobility 	stopTime 	791.3
scalar RSUExampleScenario.node[94].veinsmobility 	minSpeed 	0.25815068521095
scalar RSUExampleScenario.node[94].veinsmobility 	maxSpeed 	18.999715765684
scalar RSUExampleScenario.node[94].veinsmobility 	totalDistance 	3409.9321344487
scalar RSUExampleScenario.node[94].veinsmobility 	totalCO2Emission 	707.75264516726
scalar RSUExampleScenario.node[95].veinsmobility 	startTime 	570.1
scalar RSUExampleScenario.node[95].veinsmobility 	totalTime 	226.9
scalar RSUExampleScenario.node[95].veinsmobility 	stopTime 	797.1
scalar RSUExampleScenario.node[95].veinsmobility 	minSpeed 	0.25585442896187
scalar RSUExampleScenario.node[95].veinsmobility 	maxSpeed 	18.999927097412
scalar RSUExampleScenario.node[95].veinsmobility 	totalDistance 	3409.2548946048
scalar RSUExampleScenario.node[95].veinsmobility 	totalCO2Emission 	704.57025415206
scalar RSUExampleScenario.node[96].veinsmobility 	startTime 	576.1
scalar RSUExampleScenario.node[96].veinsmobility 	totalTime 	227
scalar RSUExampleScenario.node[96].veinsmobility 	stopTime 	803.2
scalar RSUExampleScenario.node[96].veinsmobility 	minSpeed 	0.25053606604924
scalar RSUExampleScenario.node[96].veinsmobility 	maxSpeed 	18.999975772446
scalar RSUExampleScenario.node[96].veinsmobility 	totalDistance 	3409.2052623147
scalar RSUExampleScenario.node[96].veinsmobility 	totalCO2Emission 	707.78915988423
scalar RSUExampleScenario.node[97].veinsmobility 	startTime 	582.1
scalar RSUExampleScenario.node[97].veinsmobility 	totalTime 	226.8
scalar RSUExampleScenario.node[97].veinsmobility 	stopTime 	809
scalar RSUExampleScenario.node[97].veinsmobility 	minSpeed 	0.2491611339103
scalar RSUExampleScenario.node[97].veinsmobility 	maxSpeed 	18.99992551255
scalar RSUExampleScenario.node[97].veinsmobility 	totalDistance 	3409.2508506551
scalar RSUExampleScenario.node[97].veinsmobility 	totalCO2Emission 	707.22080093163
scalar RSUExampleScenario.node[98].veinsmobility 	startTime 	588.1
scalar RSUExampleScenario.node[98].veinsmobility 	totalTime 	227.2
scalar RSUExampleScenario.node[98].veinsmobility 	stopTime 	815.4
scalar RSUExampleScenario.node[98].veinsmobility 	minSpeed 	0.25725464654155
scalar RSUExampleScenario.node[98].veinsmobility 	maxSpeed 	18.999969670118
scalar RSUExampleScenario.node[98].veinsmobility 	totalDistance 	3409.55943133
scalar RSUExampleScenario.node[98].veinsmobility 	totalCO2Emission 	708.35397242684
scalar RSUExampleScenario.node[99].veinsmobility 	startTime 	594.1
scalar RSUExampleScenario.node[99].veinsmobility 	totalTime 	227
scalar RSUExampleScenario.node[99].veinsmobility 	stopTime 	821.2
scalar RSUExampleScenario.node[99].veinsmobility 	minSpeed 	0.25750382503541
scalar RSUExampleScenario.node[99].veinsmobility 	maxSpeed 	18.999992634286
scalar RSUExampleScenario.node[99].veinsmobility 	totalDistance 	3409.6663492221
scalar RSUExampleScenario.node[99].veinsmobility 	totalCO2Emission 	703.10848141677
scalar RSUExampleScenario.node[100].veinsmobility 	startTime 	600.1
scalar RSUExampleScenario.node[100].veinsmobility 	totalTime 	226.9
scalar RSUExampleScenario.node[100].veinsmobility 	stopTime 	827.1
scalar RSUExampleScenario.node[100].veinsmobility 	minSpeed 	0.25542754831631
scalar RSUExampleScenario.node[100].veinsmobility 	maxSpeed 	18.999808914829
scalar RSUExampleScenario.node[100].veinsmobility 	totalDistance 	3409.5758469003
scalar RSUExampleScenario.node[100].veinsmobility 	totalCO2Emission 	709.42839813301
scalar RSUExampleScenario.node[101].veinsmobility 	startTime 	606.1
scalar RSUExampleScenario.node[101].veinsmobility 	totalTime 	226.9
scalar RSUExampleScenario.node[101].veinsmobility 	stopTime 	833.1
scalar RSUExampleScenario.node[101].veinsmobility 	minSpeed 	0.25815150592732
scalar RSUExampleScenario.node[101].veinsmobility 	maxSpeed 	18.999881585564
scalar RSUExampleScenario.node[101].veinsmobility 	totalDistance 	3409.6426916754
scalar RSUExampleScenario.node[101].veinsmobility 	totalCO2Emission 	706.48794139748
scalar RSUExampleScenario.node[102].veinsmobility 	startTime 	612.1
scalar RSUExampleScenario.node[102].veinsmobility 	totalTime 	227.1
scalar RSUExampleScenario.node[102].veinsmobility 	stopTime 	839.3
scalar RSUExampleScenario.node[102].veinsmobility 	minSpeed 	0.25998513545375
scalar RSUExampleScenario.node[102].veinsmobility 	maxSpeed 	18.999993627106
scalar RSUExampleScenario.node[102].veinsmobility 	totalDistance 	3409.3987668078
scalar RSUExampleScenario.node[102].veinsmobility 	totalCO2Emission 	708.66302413705
scalar RSUExampleScenario.node[103].veinsmobility 	startTime 	618.1
scalar RSUExampleScenario.node[103].veinsmobility 	totalTime 	227
scalar RSUExampleScenario.node[103].veinsmobility 	stopTime 	845.2
scalar RSUExampleScenario.node[103].veinsmobility 	minSpeed 	0.25547288005496
scalar RSUExampleScenario.node[103].veinsmobility 	maxSpeed 	18.999868000143
scalar RSUExampleScenario.node[103].veinsmobility 	totalDistance 	3409.2778061026
scalar RSUExampleScenario.node[103].veinsmobility 	totalCO2Emission 	707.37942952274
scalar RSUExampleScenario.node[104].veinsmobility 	startTime 	624.1
scalar RSUExampleScenario.node[104].veinsmobility 	totalTime 	227
scalar RSUExampleScenario.node[104].veinsmobility 	stopTime 	851.2
scalar RSUExampleScenario.node[104].veinsmobility 	minSpeed 	0.25936823929567
scalar RSUExampleScenario.node[104].veinsmobility 	maxSpeed 	18.999975179799
scalar RSUExampleScenario.node[104].veinsmobility 	totalDistance 	3409.6305067925
scalar RSUExampleScenario.node[104].veinsmobility 	totalCO2Emission 	709.1788487309
scalar RSUExampleScenario.node[105].veinsmobility 	startTime 	630.1
scalar RSUExampleScenario.node[105].veinsmobility 	totalTime 	227.1
scalar RSUExampleScenario.node[105].veinsmobility 	stopTime 	857.3
scalar RSUExampleScenario.node[105].veinsmobility 	minSpeed 	0.25102675750968
scalar RSUExampleScenario.node[105].veinsmobility 	maxSpeed 	18.999985113358
scalar RSUExampleScenario.node[105].veinsmobility 	totalDistance 	3409.7542625547
scalar RSUExampleScenario.node[105].veinsmobility 	totalCO2Emission 	706.0564365798
scalar RSUExampleScenario.node[106].veinsmobility 	startTime 	636.1
scalar RSUExampleScenario.node[106].veinsmobility 	totalTime 	226.8
scalar RSUExampleScenario.node[106].veinsmobility 	stopTime 	863
scalar RSUExampleScenario.node[106].veinsmobility 	minSpeed 	0.25754815902328
scalar RSUExampleScenario.node[106].veinsmobility 	maxSpeed 	18.999976304527
scalar RSUExampleScenario.node[106].veinsmobility 	totalDistance 	3409.5288934368
scalar RSUExampleScenario.node[106].veinsmobility 	totalCO2Emission 	705.09729231191
scalar RSUExampleScenario.node[107].veinsmobility 	startTime 	642.1
scalar RSUExampleScenario.node[107].veinsmobility 	totalTime 	226.7
scalar RSUExampleScenario.node[107].veinsmobility 	stopTime 	868.9
scalar RSUExampleScenario.node[107].veinsmobility 	minSpeed 	0.25055833554571
scalar RSUExampleScenario.node[107].veinsmobility 	maxSpeed 	18.999853720374
scalar RSUExampleScenario.node[107].veinsmobility 	totalDistance 	3409.7473001134
scalar RSUExampleScenario.node[107].veinsmobility 	totalCO2Emission 	703.50836194354
scalar RSUExampleScenario.node[108].veinsmobility 	startTime 	648.1
scalar RSUExampleScenario.node[108].veinsmobility 	totalTime 	227
scalar RSUExampleScenario.node[108].veinsmobility 	stopTime 	875.2
scalar RSUExampleScenario.node[108].veinsmobility 	minSpeed 	0.2529479914736
scalar RSUExampleScenario.node[108].veinsmobility 	maxSpeed 	18.999845888927
scalar RSUExampleScenario.node[108].veinsmobility 	totalDistance 	3409.454758959
scalar RSUExampleScenario.node[108].veinsmobility 	totalCO2Emission 	704.78841880466
scalar RSUExampleScenario.node[109].veinsmobility 	startTime 	654.1
scalar RSUExampleScenario.node[109].veinsmobility 	totalTime 	226.9
scalar RSUExampleScenario.node[109].veinsmobility 	stopTime 	881.1
scalar RSUExampleScenario.node[109].veinsmobility 	minSpeed 	0.24731773344893
scalar RSUExampleScenario.node[109].veinsmobility 	maxSpeed 	18.999833757065
scalar RSUExampleScenario.node[109].veinsmobility 	totalDistance 	3409.5122277091
scalar RSUExampleScenario.node[109].veinsmobility 	totalCO2Emission 	706.05951287668
scalar RSUExampleScenario.node[110].veinsmobility 	startTime 	660.1
scalar RSUExampleScenario.node[110].veinsmobility 	totalTime 	226.9
scalar RSUExampleScenario.node[110].veinsmobility 	stopTime 	887.1
scalar RSUExampleScenario.node[110].veinsmobility 	minSpeed 	0.24745844057575
scalar RSUExampleScenario.node[110].veinsmobility 	maxSpeed 	18.999660571381
scalar RSUExampleScenario.node[110].veinsmobility 	totalDistance 	3409.4188406708
scalar RSUExampleScenario.node[110].veinsmobility 	totalCO2Emission 	702.00340245662
scalar RSUExampleScenario.node[111].veinsmobility 	startTime 	666.1
scalar RSUExampleScenario.node[111].veinsmobility 	totalTime 	227
scalar RSUExampleScenario.node[111].veinsmobility 	stopTime 	893.2
scalar RSUExampleScenario.node[111].veinsmobility 	minSpeed 	0.2547392892756
scalar RSUExampleScenario.node[111].veinsmobility 	maxSpeed 	18.999768071242
scalar RSUExampleScenario.node[111].veinsmobility 	totalDistance 	3409.1990778524
scalar RSUExampleScenario.node[111].veinsmobility 	totalCO2Emission 	708.93828849585
scalar RSUExampleScenario.node[112].veinsmobility 	startTime 	672.1
scalar RSUExampleScenario.node[112].veinsmobility 	totalTime 	227.1
scalar RSUExampleScenario.node[112].veinsmobility 	stopTime 	899.3
scalar RSUExampleScenario.node[112].veinsmobility 	minSpeed 	0.25602586015034
scalar RSUExampleScenario.node[112].veinsmobility 	maxSpeed 	18.999438757214
scalar RSUExampleScenario.node[112].veinsmobility 	totalDistance 	3409.6241267437
scalar RSUExampleScenario.node[112].veinsmobility 	totalCO2Emission 	705.18107114415
scalar RSUExampleScenario.node[113].veinsmobility 	startTime 	678.1
scalar RSUExampleScenario.node[113].veinsmobility 	totalTime 	227
scalar RSUExampleScenario.node[113].veinsmobility 	stopTime 	905.2
scalar RSUExampleScenario.node[113].veinsmobility 	minSpeed 	0.25782984514395
scalar RSUExampleScenario.node[113].veinsmobility 	maxSpeed 	18.99920679946
scalar RSUExampleScenario.node[113].veinsmobility 	totalDistance 	3409.2705865835
scalar RSUExampleScenario.node[113].veinsmobility 	totalCO2Emission 	708.08613840117
scalar RSUExampleScenario.node[114].veinsmobility 	startTime 	684.1
scalar RSUExampleScenario.node[114].veinsmobility 	totalTime 	226.7
scalar RSUExampleScenario.node[114].veinsmobility 	stopTime 	910.9
scalar RSUExampleScenario.node[114].veinsmobility 	minSpeed 	0.24926939388271
scalar RSUExampleScenario.node[114].veinsmobility 	maxSpeed 	18.999944983581
scalar RSUExampleScenario.node[114].veinsmobility 	totalDistance 	3409.8369286105
scalar RSUExampleScenario.node[114].veinsmobility 	totalCO2Emission 	705.37591407947
scalar RSUExampleScenario.node[115].veinsmobility 	startTime 	690.1
scalar RSUExampleScenario.node[115].veinsmobility 	totalTime 	226.7
scalar RSUExampleScenario.node[115].veinsmobility 	stopTime 	916.9
scalar RSUExampleScenario.node[115].veinsmobility 	minSpeed 	0.2572322727961
scalar RSUExampleScenario.node[115].veinsmobility 	maxSpeed 	18.999540200906
scalar RSUExampleScenario.node[115].veinsmobility 	totalDistance 	3409.3841903498
scalar RSUExampleScenario.node[115].veinsmobility 	totalCO2Emission 	705.64205721158
scalar RSUExampleScenario.node[116].veinsmobility 	startTime 	696.1
scalar RSUExampleScenario.node[116].veinsmobility 	totalTime 	226.9
scalar RSUExampleScenario.node[116].veinsmobility 	stopTime 	923.1
scalar RSUExampleScenario.node[116].veinsmobility 	minSpeed 	0.24842374045216
scalar RSUExampleScenario.node[116].veinsmobility 	maxSpeed 	18.999603075651
scalar RSUExampleScenario.node[116].veinsmobility 	totalDistance 	3409.3515442452
scalar RSUExampleScenario.node[116].veinsmobility 	totalCO2Emission 	710.11834896566
scalar RSUExampleScenario.node[117].veinsmobility 	startTime 	702.1
scalar RSUExampleScenario.node[117].veinsmobility 	totalTime 	227.1
scalar RSUExampleScenario.node[117].veinsmobility 	stopTime 	929.3
scalar RSUExampleScenario.node[117].veinsmobility 	minSpeed 	0.25492153975484
scalar RSUExampleScenario.node[117].veinsmobility 	maxSpeed 	18.99994480385
scalar RSUExampleScenario.node[117].veinsmobility 	totalDistance 	3409.5006865502
scalar RSUExampleScenario.node[117].veinsmobility 	totalCO2Emission 	704.59500628625
scalar RSUExampleScenario.node[118].veinsmobility 	startTime 	708.1
scalar RSUExampleScenario.node[118].veinsmobility 	totalTime 	227.2
scalar RSUExampleScenario.node[118].veinsmobility 	stopTime 	935.4
scalar RSUExampleScenario.node[118].veinsmobility 	minSpeed 	0.24715073987679
scalar RSUExampleScenario.node[118].veinsmobility 	maxSpeed 	18.999685682517
scalar RSUExampleScenario.node[118].veinsmobility 	totalDistance 	3409.8108351255
scalar RSUExampleScenario.node[118].veinsmobility 	totalCO2Emission 	704.84003797011
scalar RSUExampleScenario.node[119].veinsmobility 	startTime 	714.1
scalar RSUExampleScenario.node[119].veinsmobility 	totalTime 	226.8
scalar RSUExampleScenario.node[119].veinsmobility 	stopTime 	941
scalar RSUExampleScenario.node[119].veinsmobility 	minSpeed 	0.25744001847622
scalar RSUExampleScenario.node[119].veinsmobility 	maxSpeed 	18.999954042244
scalar RSUExampleScenario.node[119].veinsmobility 	totalDistance 	3409.517722404
scalar RSUExampleScenario.node[119].veinsmobility 	totalCO2Emission 	705.32341335066
scalar RSUExampleScenario.node[120].veinsmobility 	startTime 	720.1
scalar RSUExampleScenario.node[120].veinsmobility 	totalTime 	226.8
scalar RSUExampleScenario.node[120].veinsmobility 	stopTime 	947
scalar RSUExampleScenario.node[120].veinsmobility 	minSpeed 	0.25918913835147
scalar RSUExampleScenario.node[120].veinsmobility 	maxSpeed 	18.999958184841
scalar RSUExampleScenario.node[120].veinsmobility 	totalDistance 	3409.8320733001
scalar RSUExampleScenario.node[120].veinsmobility 	totalCO2Emission 	711.02079299313
scalar RSUExampleScenario.node[121].veinsmobility 	startTime 	726.1
scalar RSUExampleScenario.node[121].veinsmobility 	totalTime 	227.1
scalar RSUExampleScenario.node[121].veinsmobility 	stopTime 	953.3
scalar RSUExampleScenario.node[121].veinsmobility 	minSpeed 	0.24847044644505
scalar RSUExampleScenario.node[121].veinsmobility 	maxSpeed 	18.999950556976
scalar RSUExampleScenario.node[121].veinsmobility 	totalDistance 	3409.5588534544
scalar RSUExampleScenario.node[121].veinsmobility 	totalCO2Emission 	710.57421008811
scalar RSUExampleScenario.node[122].veinsmobility 	startTime 	732.1
scalar RSUExampleScenario.node[122].veinsmobility 	totalTime 	227
scalar RSUExampleScenario.node[122].veinsmobility 	stopTime 	959.2
scalar RSUExampleScenario.node[122].veinsmobility 	minSpeed 	0.25587011304102
scalar RSUExampleScenario.node[122].veinsmobility 	maxSpeed 	18.99985991287
scalar RSUExampleScenario.node[122].veinsmobility 	totalDistance 	3409.2943662202
scalar RSUExampleScenario.node[122].veinsmobility 	totalCO2Emission 	705.15377428564
scalar RSUExampleScenario.node[123].veinsmobility 	startTime 	738.1
scalar RSUExampleScenario.node[123].veinsmobility 	totalTime 	226.9
scalar RSUExampleScenario.node[123].veinsmobility 	stopTime 	965.1
scalar RSUExampleScenario.node[123].veinsmobility 	minSpeed 	0.2470592533797
scalar RSUExampleScenario.node[123].veinsmobility 	maxSpeed 	18.999225322981
scalar RSUExampleScenario.node[123].veinsmobility 	totalDistance 	3409.5734226232
scalar RSUExampleScenario.node[123].veinsmobility 	totalCO2Emission 	707.15701537846
scalar RSUExampleScenario.node[124].veinsmobility 	startTime 	744.1
scalar RSUExampleScenario.node[124].veinsmobility 	totalTime 	226.9
scalar RSUExampleScenario.node[124].veinsmobility 	stopTime 	971.1
scalar RSUExampleScenario.node[124].veinsmobility 	minSpeed 	0.24765277396142
scalar RSUExampleScenario.node[124].veinsmobility 	maxSpeed 	18.999960079193
scalar RSUExampleScenario.node[124].veinsmobility 	totalDistance 	3409.6013077756
scalar RSUExampleScenario.node[124].veinsmobility 	totalCO2Emission 	708.59505320425
scalar RSUExampleScenario.node[125].veinsmobility 	startTime 	750.1
scalar RSUExampleScenario.node[125].veinsmobility 	totalTime 	226.8
scalar RSUExampleScenario.node[125].veinsmobility 	stopTime 	977
scalar RSUExampleScenario.node[125].veinsmobility 	minSpeed 	0.24743408104475
scalar RSUExampleScenario.node[125].veinsmobility 	maxSpeed 	18.999652638142
scalar RSUExampleScenario.node[125].veinsmobility 	totalDistance 	3409.2321884276
scalar RSUExampleScenario.node[125].veinsmobility 	totalCO2Emission 	703.66758285876
scalar RSUExampleScenario.node[126].veinsmobility 	startTime 	756.1
scalar RSUExampleScenario.node[126].veinsmobility 	totalTime 	227.1
scalar RSUExampleScenario.node[126].veinsmobility 	stopTime 	983.3
scalar RSUExampleScenario.node[126].veinsmobility 	minSpeed 	0.25794770599366
scalar RSUExampleScenario.node[126].veinsmobility 	maxSpeed 	18.99973121522
scalar RSUExampleScenario.node[126].veinsmobility 	totalDistance 	3409.1820990493
scalar RSUExampleScenario.node[126].veinsmobility 	totalCO2Emission 	706.97835020985
scalar RSUExampleScenario.node[127].veinsmobility 	startTime 	762.1
scalar RSUExampleScenario.node[127].veinsmobility 	totalTime 	227
scalar RSUExampleScenario.node[127].veinsmobility 	stopTime 	989.2
scalar RSUExampleScenario.node[127].veinsmobility 	minSpeed 	0.25979842410027
scalar RSUExampleScenario.node[127].veinsmobility 	maxSpeed 	18.999879516081
scalar RSUExampleScenario.node[127].veinsmobility 	totalDistance 	3409.645959727
scalar RSUExampleScenario.node[127].veinsmobility 	totalCO2Emission 	709.91085480467
scalar RSUExampleScenario.node[128].veinsmobility 	startTime 	768.1
scalar RSUExampleScenario.node[128].veinsmobility 	totalTime 	227
scalar RSUExampleScenario.node[128].veinsmobility 	stopTime 	995.2
scalar RSUExampleScenario.node[128].veinsmobility 	minSpeed 	0.24722303707455
scalar RSUExampleScenario.node[128].veinsmobility 	maxSpeed 	18.999811870437
scalar RSUExampleScenario.node[128].veinsmobility 	totalDistance 	3409.3282664793
scalar RSUExampleScenario.node[128].veinsmobility 	totalCO2Emission 	708.89490139834
scalar RSUExampleScenario.node[129].veinsmobility 	startTime 	774.1
scalar RSUExampleScenario.node[129].veinsmobility 	totalTime 	227
scalar RSUExampleScenario.node[129].veinsmobility 	stopTime 	1001.2
scalar RSUExampleScenario.node[129].veinsmobility 	minSpeed 	0.25223970263405
scalar RSUExampleScenario.node[129].veinsmobility 	maxSpeed 	18.999896176457
scalar RSUExampleScenario.node[129].veinsmobility 	totalDistance 	3409.5558689307
scalar RSUExampleScenario.node[129].veinsmobility 	totalCO2Emission 	707.5376436875
scalar RSUExampleScenario.node[130].veinsmobility 	startTime 	780.1
scalar RSUExampleScenario.node[130].veinsmobility 	totalTime 	226.7
scalar RSUExampleScenario.node[130].veinsmobility 	stopTime 	1006.9
scalar RSUExampleScenario.node[130].veinsmobility 	minSpeed 	0.25239449285436
scalar RSUExampleScenario.node[130].veinsmobility 	maxSpeed 	18.999887960576
scalar RSUExampleScenario.node[130].veinsmobility 	totalDistance 	3409.4489242406
scalar RSUExampleScenario.node[130].veinsmobility 	totalCO2Emission 	707.64791916118
scalar RSUExampleScenario.node[131].veinsmobility 	startTime 	786.1
scalar RSUExampleScenario.node[131].veinsmobility 	totalTime 	226.6
scalar RSUExampleScenario.node[131].veinsmobility 	stopTime 	1012.8
scalar RSUExampleScenario.node[131].veinsmobility 	minSpeed 	0.24839826776762
scalar RSUExampleScenario.node[131].veinsmobility 	maxSpeed 	18.999954757385
scalar RSUExampleScenario.node[131].veinsmobility 	totalDistance 	3409.2344912173
scalar RSUExampleScenario.node[131].veinsmobility 	totalCO2Emission 	704.80224134943
scalar RSUExampleScenario.node[132].veinsmobility 	startTime 	792.1
scalar RSUExampleScenario.node[132].veinsmobility 	totalTime 	226.6
scalar RSUExampleScenario.node[132].veinsmobility 	stopTime 	1018.8
scalar RSUExampleScenario.node[132].veinsmobility 	minSpeed 	0.25112429578742
scalar RSUExampleScenario.node[132].veinsmobility 	maxSpeed 	18.999914638202
scalar RSUExampleScenario.node[132].veinsmobility 	totalDistance 	3409.3916399687
scalar RSUExampleScenario.node[132].veinsmobility 	totalCO2Emission 	708.08795502948
scalar RSUExampleScenario.node[133].veinsmobility 	startTime 	798.1
scalar RSUExampleScenario.node[133].veinsmobility 	totalTime 	227
scalar RSUExampleScenario.node[133].veinsmobility 	stopTime 	1025.2
scalar RSUExampleScenario.node[133].veinsmobility 	minSpeed 	0.25709938291181
scalar RSUExampleScenario.node[133].veinsmobility 	maxSpeed 	18.999813155343
scalar RSUExampleScenario.node[133].veinsmobility 	totalDistance 	3409.1377028799
scalar RSUExampleScenario.node[133].veinsmobility 	totalCO2Emission 	708.91225583891
scalar RSUExampleScenario.node[134].veinsmobility 	startTime 	804.1
scalar RSUExampleScenario.node[134].veinsmobility 	totalTime 	227.1
scalar RSUExampleScenario.node[134].veinsmobility 	stopTime 	1031.3
scalar RSUExampleScenario.node[134].veinsmobility 	minSpeed 	0.25039136632113
scalar RSUExampleScenario.node[134].veinsmobility 	maxSpeed 	18.999680948998
scalar RSUExampleScenario.node[134].veinsmobility 	totalDistance 	3409.7549407212
scalar RSUExampleScenario.node[134].veinsmobility 	totalCO2Emission 	711.37053323441
scalar RSUExampleScenario.node[135].veinsmobility 	startTime 	810.1
scalar RSUExampleScenario.node[135].veinsmobility 	totalTime 	226.5
scalar RSUExampleScenario.node[135].veinsmobility 	stopTime 	1036.7
scalar RSUExampleScenario.node[135].veinsmobility 	minSpeed 	0.25127550355578
scalar RSUExampleScenario.node[135].veinsmobility 	maxSpeed 	18.999962022095
scalar RSUExampleScenario.node[135].veinsmobility 	totalDistance 	3409.5669085045
scalar RSUExampleScenario.node[135].veinsmobility 	totalCO2Emission 	711.84350133382
scalar RSUExampleScenario.node[136].veinsmobility 	startTime 	816.1
scalar RSUExampleScenario.node[136].veinsmobility 	totalTime 	226.8
scalar RSUExampleScenario.node[136].veinsmobility 	stopTime 	1043
scalar RSUExampleScenario.node[136].veinsmobility 	minSpeed 	0.25346755631431
scalar RSUExampleScenario.node[136].veinsmobility 	maxSpeed 	18.999953984402
scalar RSUExampleScenario.node[136].veinsmobility 	totalDistance 	3409.3067773567
scalar RSUExampleScenario.node[136].veinsmobility 	totalCO2Emission 	706.31567656874
scalar RSUExampleScenario.node[137].veinsmobility 	startTime 	822.1
scalar RSUExampleScenario.node[137].veinsmobility 	totalTime 	226.7
scalar RSUExampleScenario.node[137].veinsmobility 	stopTime 	1048.9
scalar RSUExampleScenario.node[137].veinsmobility 	minSpeed 	0.25832407415379
scalar RSUExampleScenario.node[137].veinsmobility 	maxSpeed 	18.99998335155
scalar RSUExampleScenario.node[137].veinsmobility 	totalDistance 	3409.4232024924
scalar RSUExampleScenario.node[137].veinsmobility 	totalCO2Emission 	706.54077085382
scalar RSUExampleScenario.node[138].veinsmobility 	startTime 	828.1
scalar RSUExampleScenario.node[138].veinsmobility 	totalTime 	226.9
scalar RSUExampleScenario.node[138].veinsmobility 	stopTime 	1055.1
scalar RSUExampleScenario.node[138].veinsmobility 	minSpeed 	0.25214205546724
scalar RSUExampleScenario.node[138].veinsmobility 	maxSpeed 	18.999977071276
scalar RSUExampleScenario.node[138].veinsmobility 	totalDistance 	3409.3744538375
scalar RSUExampleScenario.node[138].veinsmobility 	totalCO2Emission 	707.56611043239
scalar RSUExampleScenario.node[139].veinsmobility 	startTime 	834.1
scalar RSUExampleScenario.node[139].veinsmobility 	totalTime 	226.7
scalar RSUExampleScenario.node[139].veinsmobility 	stopTime 	1060.9
scalar RSUExampleScenario.node[139].veinsmobility 	minSpeed 	0.25779142256593
scalar RSUExampleScenario.node[139].veinsmobility 	maxSpeed 	18.99927406851
scalar RSUExampleScenario.node[139].veinsmobility 	totalDistance 	3409.1614791463
scalar RSUExampleScenario.node[139].veinsmobility 	totalCO2Emission 	706.30485313463
scalar RSUExampleScenario.node[140].veinsmobility 	startTime 	840.1
scalar RSUExampleScenario.node[140].veinsmobility 	totalTime 	227
scalar RSUExampleScenario.node[140].veinsmobility 	stopTime 	1067.2
scalar RSUExampleScenario.node[140].veinsmobility 	minSpeed 	0.25376903930958
scalar RSUExampleScenario.node[140].veinsmobility 	maxSpeed 	18.99991799701
scalar RSUExampleScenario.node[140].veinsmobility 	totalDistance 	3409.3810547222
scalar RSUExampleScenario.node[140].veinsmobility 	totalCO2Emission 	707.24618396926
scalar RSUExampleScenario.node[141].veinsmobility 	startTime 	846.1
scalar RSUExampleScenario.node[141].veinsmobility 	totalTime 	227
scalar RSUExampleScenario.node[141].veinsmobility 	stopTime 	1073.2
scalar RSUExampleScenario.node[141].veinsmobility 	minSpeed 	0.25825754751381
scalar RSUExampleScenario.node[141].veinsmobility 	maxSpeed 	18.999937274416
scalar RSUExampleScenario.node[141].veinsmobility 	totalDistance 	3410.0321359218
scalar RSUExampleScenario.node[141].veinsmobility 	totalCO2Emission 	704.82285283566
scalar RSUExampleScenario.node[142].veinsmobility 	startTime 	852.1
scalar RSUExampleScenario.node[142].veinsmobility 	totalTime 	227
scalar RSUExampleScenario.node[142].veinsmobility 	stopTime 	1079.2
scalar RSUExampleScenario.node[142].veinsmobility 	minSpeed 	0.25220828604698
scalar RSUExampleScenario.node[142].veinsmobility 	maxSpeed 	18.999893668815
scalar RSUExampleScenario.node[142].veinsmobility 	totalDistance 	3409.6592673804
scalar RSUExampleScenario.node[142].veinsmobility 	totalCO2Emission 	705.29352715197
scalar RSUExampleScenario.node[143].veinsmobility 	startTime 	858.1
scalar RSUExampleScenario.node[143].veinsmobility 	totalTime 	226.7
scalar RSUExampleScenario.node[143].veinsmobility 	stopTime 	1084.9
scalar RSUExampleScenario.node[143].veinsmobility 	minSpeed 	0.25902047803346
scalar RSUExampleScenario.node[143].veinsmobility 	maxSpeed 	18.999625671245
scalar RSUExampleScenario.node[143].veinsmobility 	totalDistance 	3409.4063058198
scalar RSUExampleScenario.node[143].veinsmobility 	totalCO2Emission 	709.78032815779
scalar RSUExampleScenario.node[144].veinsmobility 	startTime 	864.1
scalar RSUExampleScenario.node[144].veinsmobility 	totalTime 	226.8
scalar RSUExampleScenario.node[144].veinsmobility 	stopTime 	1091
scalar RSUExampleScenario.node[144].veinsmobility 	minSpeed 	0.25111819578684
scalar RSUExampleScenario.node[144].veinsmobility 	maxSpeed 	18.999653037316
scalar RSUExampleScenario.node[144].veinsmobility 	totalDistance 	3409.2587295356
scalar RSUExampleScenario.node[144].veinsmobility 	totalCO2Emission 	706.83500256571
scalar RSUExampleScenario.node[145].veinsmobility 	startTime 	870.1
scalar RSUExampleScenario.node[145].veinsmobility 	totalTime 	227
scalar RSUExampleScenario.node[145].veinsmobility 	stopTime 	1097.2
scalar RSUExampleScenario.node[145].veinsmobility 	minSpeed 	0.25958162349556
scalar RSUExampleScenario.node[145].veinsmobility 	maxSpeed 	18.999646904932
scalar RSUExampleScenario.node[145].veinsmobility 	totalDistance 	3410.0142857461
scalar RSUExampleScenario.node[145].veinsmobility 	totalCO2Emission 	708.48350712047
scalar RSUExampleScenario.node[146].veinsmobility 	startTime 	876.1
scalar RSUExampleScenario.node[146].veinsmobility 	totalTime 	227.1
scalar RSUExampleScenario.node[146].veinsmobility 	stopTime 	1103.3
scalar RSUExampleScenario.node[146].veinsmobility 	minSpeed 	0.24704250012944
scalar RSUExampleScenario.node[146].veinsmobility 	maxSpeed 	18.999928158547
scalar RSUExampleScenario.node[146].veinsmobility 	totalDistance 	3409.5065796896
scalar RSUExampleScenario.node[146].veinsmobility 	totalCO2Emission 	706.0226818724
scalar RSUExampleScenario.node[147].veinsmobility 	startTime 	882.1
scalar RSUExampleScenario.node[147].veinsmobility 	totalTime 	226.9
scalar RSUExampleScenario.node[147].veinsmobility 	stopTime 	1109.1
scalar RSUExampleScenario.node[147].veinsmobility 	minSpeed 	0.24979578962317
scalar RSUExampleScenario.node[147].veinsmobility 	maxSpeed 	18.999722780047
scalar RSUExampleScenario.node[147].veinsmobility 	totalDistance 	3409.4915282638
scalar RSUExampleScenario.node[147].veinsmobility 	totalCO2Emission 	705.73898744681
scalar RSUExampleScenario.node[148].veinsmobility 	startTime 	888.1
scalar RSUExampleScenario.node[148].veinsmobility 	totalTime 	226.9
scalar RSUExampleScenario.node[148].veinsmobility 	stopTime 	1115.1
scalar RSUExampleScenario.node[148].veinsmobility 	minSpeed 	0.25696144453366
scalar RSUExampleScenario.node[148].veinsmobility 	maxSpeed 	18.999748484376
scalar RSUExampleScenario.node[148].veinsmobility 	totalDistance 	3409.6657424218
scalar RSUExampleScenario.node[148].veinsmobility 	totalCO2Emission 	709.90699925796
scalar RSUExampleScenario.node[149].veinsmobility 	startTime 	894.1
scalar RSUExampleScenario.node[149].veinsmobility 	totalTime 	226.6
scalar RSUExampleScenario.node[149].veinsmobility 	stopTime 	1120.8
scalar RSUExampleScenario.node[149].veinsmobility 	minSpeed 	0.25590901136212
scalar RSUExampleScenario.node[149].veinsmobility 	maxSpeed 	18.999964581435
scalar RSUExampleScenario.node[149].veinsmobility 	totalDistance 	3409.5038129033
scalar RSUExampleScenario.node[149].veinsmobility 	totalCO2Emission 	707.70114173134
scalar RSUExampleScenario.node[150].veinsmobility 	startTime 	900.1
scalar RSUExampleScenario.node[150].veinsmobility 	totalTime 	226.9
scalar RSUExampleScenario.node[150].veinsmobility 	stopTime 	1127.1
scalar RSUExampleScenario.node[150].veinsmobility 	minSpeed 	0.25008331523091
scalar RSUExampleScenario.node[150].veinsmobility 	maxSpeed 	18.999978391021
scalar RSUExampleScenario.node[150].veinsmobility 	totalDistance 	3409.2599119744
scalar RSUExampleScenario.node[150].veinsmobility 	totalCO2Emission 	706.93982710249
scalar RSUExampleScenario.node[151].veinsmobility 	startTime 	906.1
scalar RSUExampleScenario.node[151].veinsmobility 	totalTime 	226.7
scalar RSUExampleScenario.node[151].veinsmobility 	stopTime 	1132.9
scalar RSUExampleScenario.node[151].veinsmobility 	minSpeed 	0.25964900225797
scalar RSUExampleScenario.node[151].veinsmobility 	maxSpeed 	18.999621194701
scalar RSUExampleScenario.node[151].veinsmobility 	totalDistance 	3409.6921944094
scalar RSUExampleScenario.node[151].veinsmobility 	totalCO2Emission 	702.68822401016
scalar RSUExampleScenario.node[152].veinsmobility 	startTime 	912.1
scalar RSUExampleScenario.node[152].veinsmobility 	totalTime 	227
scalar RSUExampleScenario.node[152].veinsmobility 	stopTime 	1139.2
scalar RSUExampleScenario.node[152].veinsmobility 	minSpeed 	0.257860590372
scalar RSUExampleScenario.node[152].veinsmobility 	maxSpeed 	18.999928014018
scalar RSUExampleScenario.node[152].veinsmobility 	totalDistance 	3409.6353498247
scalar RSUExampleScenario.node[152].veinsmobility 	totalCO2Emission 	707.34871227632
[...]
scalar RSUExampleScenario.node[262].veinsmobility 	startTime 	1572.1
scalar RSUExampleScenario.node[262].veinsmobility 	totalTime 	226.6
scalar RSUExampleScenario.node[262].veinsmobility 	stopTime 	1798.8
scalar RSUExampleScenario.node[262].veinsmobility 	minSpeed 	0.24982098824321
scalar RSUExampleScenario.node[262].veinsmobility 	maxSpeed 	18.999968941659
scalar RSUExampleScenario.node[262].veinsmobility 	totalDistance 	3409.6565488148
scalar RSUExampleScenario.node[262].veinsmobility 	totalCO2Emission 	705.07742612038
scalar RSUExampleScenario.node[263].veinsmobility 	startTime 	1578.1
scalar RSUExampleScenario.node[263].veinsmobility 	totalTime 	227
scalar RSUExampleScenario.node[263].veinsmobility 	stopTime 	1805.2
scalar RSUExampleScenario.node[263].veinsmobility 	minSpeed 	0.25865128279524
scalar RSUExampleScenario.node[263].veinsmobility 	maxSpeed 	18.999896642161
scalar RSUExampleScenario.node[263].veinsmobility 	totalDistance 	3409.6402278862
scalar RSUExampleScenario.node[263].veinsmobility 	totalCO2Emission 	709.27228708388
scalar RSUExampleScenario.node[264].veinsmobility 	startTime 	1584.1
scalar RSUExampleScenario.node[264].veinsmobility 	totalTime 	226.8
scalar RSUExampleScenario.node[264].veinsmobility 	stopTime 	1811
scalar RSUExampleScenario.node[264].veinsmobility 	minSpeed 	0.2538135643641
scalar RSUExampleScenario.node[264].veinsmobility 	maxSpeed 	18.999391556806
scalar RSUExampleScenario.node[264].veinsmobility 	totalDistance 	3409.4475540028
scalar RSUExampleScenario.node[264].veinsmobility 	totalCO2Emission 	710.10567116007
scalar RSUExampleScenario.node[265].veinsmobility 	startTime 	1590.1
scalar RSUExampleScenario.node[265].veinsmobility 	totalTime 	226.8
scalar RSUExampleScenario.node[265].veinsmobility 	stopTime 	1817
scalar RSUExampleScenario.node[265].veinsmobility 	minSpeed 	0.25751157954452
scalar RSUExampleScenario.node[265].veinsmobility 	maxSpeed 	18.999608924484
scalar RSUExampleScenario.node[265].veinsmobility 	totalDistance 	3409.637786898
scalar RSUExampleScenario.node[265].veinsmobility 	totalCO2Emission 	700.42491972492
scalar RSUExampleScenario.node[266].veinsmobility 	startTime 	1596.1
scalar RSUExampleScenario.node[266].veinsmobility 	totalTime 	227.2
scalar RSUExampleScenario.node[266].veinsmobility 	stopTime 	1823.4
scalar RSUExampleScenario.node[266].veinsmobility 	minSpeed 	0.24937133120932
scalar RSUExampleScenario.node[266].veinsmobility 	maxSpeed 	18.999709830072
scalar RSUExampleScenario.node[266].veinsmobility 	totalDistance 	3409.3341505702
scalar RSUExampleScenario.node[266].veinsmobility 	totalCO2Emission 	707.52014058054
scalar RSUExampleScenario.node[267].veinsmobility 	startTime 	1602.1
scalar RSUExampleScenario.node[267].veinsmobility 	totalTime 	226.9
scalar RSUExampleScenario.node[267].veinsmobility 	stopTime 	1829.1
scalar RSUExampleScenario.node[267].veinsmobility 	minSpeed 	0.24763553969841
scalar RSUExampleScenario.node[267].veinsmobility 	maxSpeed 	18.999825049995
scalar RSUExampleScenario.node[267].veinsmobility 	totalDistance 	3409.3901555182
scalar RSUExampleScenario.node[267].veinsmobility 	totalCO2Emission 	705.23388007762
scalar RSUExampleScenario.node[268].veinsmobility 	startTime 	1608.1
scalar RSUExampleScenario.node[268].veinsmobility 	totalTime 	227.1
scalar RSUExampleScenario.node[268].veinsmobility 	stopTime 	1835.3
scalar RSUExampleScenario.node[268].veinsmobility 	minSpeed 	0.25383947817725
scalar RSUExampleScenario.node[268].veinsmobility 	maxSpeed 	18.999670661152
scalar RSUExampleScenario.node[268].veinsmobility 	totalDistance 	3409.3380668722
scalar RSUExampleScenario.node[268].veinsmobility 	totalCO2Emission 	706.05655246298
scalar RSUExampleScenario.node[269].veinsmobility 	startTime 	1614.1
scalar RSUExampleScenario.node[269].veinsmobility 	totalTime 	227
scalar RSUExampleScenario.node[269].veinsmobility 	stopTime 	1841.2
scalar RSUExampleScenario.node[269].veinsmobility 	minSpeed 	0.25361150907096
scalar RSUExampleScenario.node[269].veinsmobility 	maxSpeed 	18.99974769538
scalar RSUExampleScenario.node[269].veinsmobility 	totalDistance 	3409.5305180362
scalar RSUExampleScenario.node[269].veinsmobility 	totalCO2Emission 	704.1114028909
scalar RSUExampleScenario.node[270].veinsmobility 	startTime 	1620.1
scalar RSUExampleScenario.node[270].veinsmobility 	totalTime 	226.6
scalar RSUExampleScenario.node[270].veinsmobility 	stopTime 	1846.8
scalar RSUExampleScenario.node[270].veinsmobility 	minSpeed 	0.25295302016311
scalar RSUExampleScenario.node[270].veinsmobility 	maxSpeed 	18.99969501002
scalar RSUExampleScenario.node[270].veinsmobility 	totalDistance 	3409.52034969
scalar RSUExampleScenario.node[270].veinsmobility 	totalCO2Emission 	709.55207147437
scalar RSUExampleScenario.node[271].veinsmobility 	startTime 	1626.1
scalar RSUExampleScenario.node[271].veinsmobility 	totalTime 	226.9
scalar RSUExampleScenario.node[271].veinsmobility 	stopTime 	1853.1
scalar RSUExampleScenario.node[271].veinsmobility 	minSpeed 	0.24986849699146
scalar RSUExampleScenario.node[271].veinsmobility 	maxSpeed 	18.999994084819
scalar RSUExampleScenario.node[271].veinsmobility 	totalDistance 	3409.7811133663
scalar RSUExampleScenario.node[271].veinsmobility 	totalCO2Emission 	707.76954477276
scalar RSUExampleScenario.node[272].veinsmobility 	startTime 	1632.1
scalar RSUExampleScenario.node[272].veinsmobility 	totalTime 	226.8
scalar RSUExampleScenario.node[272].veinsmobility 	stopTime 	1859
scalar RSUExampleScenario.node[272].veinsmobility 	minSpeed 	0.24992273954581
scalar RSUExampleScenario.node[272].veinsmobility 	maxSpeed 	18.999735089855
scalar RSUExampleScenario.node[272].veinsmobility 	totalDistance 	3409.1624951891
scalar RSUExampleScenario.node[272].veinsmobility 	totalCO2Emission 	702.46267739609
scalar RSUExampleScenario.node[273].veinsmobility 	startTime 	1638.1
scalar RSUExampleScenario.node[273].veinsmobility 	totalTime 	227
scalar RSUExampleScenario.node[273].veinsmobility 	stopTime 	1865.2
scalar RSUExampleScenario.node[273].veinsmobility 	minSpeed 	0.25926773548801
scalar RSUExampleScenario.node[273].veinsmobility 	maxSpeed 	18.999870697323
scalar RSUExampleScenario.node[273].veinsmobility 	totalDistance 	3409.113140474
scalar RSUExampleScenario.node[273].veinsmobility 	totalCO2Emission 	708.67249128238
scalar RSUExampleScenario.node[274].veinsmobility 	startTime 	1644.1
scalar RSUExampleScenario.node[274].veinsmobility 	totalTime 	226.8
scalar RSUExampleScenario.node[274].veinsmobility 	stopTime 	1871
scalar RSUExampleScenario.node[274].veinsmobility 	minSpeed 	0.25521078120614
scalar RSUExampleScenario.node[274].veinsmobility 	maxSpeed 	18.999805368723
scalar RSUExampleScenario.node[274].veinsmobility 	totalDistance 	3409.7048647954
scalar RSUExampleScenario.node[274].veinsmobility 	totalCO2Emission 	708.36354089102
scalar RSUExampleScenario.node[275].veinsmobility 	startTime 	1650.1
scalar RSUExampleScenario.node[275].veinsmobility 	totalTime 	226.7
scalar RSUExampleScenario.node[275].veinsmobility 	stopTime 	1876.9
scalar RSUExampleScenario.node[275].veinsmobility 	minSpeed 	0.25845059554838
scalar RSUExampleScenario.node[275].veinsmobility 	maxSpeed 	18.9998939777
scalar RSUExampleScenario.node[275].veinsmobility 	totalDistance 	3409.4970825469
scalar RSUExampleScenario.node[275].veinsmobility 	totalCO2Emission 	707.48266382051
scalar RSUExampleScenario.node[276].veinsmobility 	startTime 	1656.1
scalar RSUExampleScenario.node[276].veinsmobility 	totalTime 	226.8
scalar RSUExampleScenario.node[276].veinsmobility 	stopTime 	1883
scalar RSUExampleScenario.node[276].veinsmobility 	minSpeed 	0.24945092525519
scalar RSUExampleScenario.node[276].veinsmobility 	maxSpeed 	18.999545159801
scalar RSUExampleScenario.node[276].veinsmobility 	totalDistance 	3410.0374448791
scalar RSUExampleScenario.node[276].veinsmobility 	totalCO2Emission 	704.22515837459
scalar RSUExampleScenario.node[277].veinsmobility 	startTime 	1662.1
scalar RSUExampleScenario.node[277].veinsmobility 	totalTime 	226.7
scalar RSUExampleScenario.node[277].veinsmobility 	stopTime 	1888.9
scalar RSUExampleScenario.node[277].veinsmobility 	minSpeed 	0.25659988857131
scalar RSUExampleScenario.node[277].veinsmobility 	maxSpeed 	18.999918654733
scalar RSUExampleScenario.node[277].veinsmobility 	totalDistance 	3409.5015592075
scalar RSUExampleScenario.node[277].veinsmobility 	totalCO2Emission 	708.33220905588
scalar RSUExampleScenario.node[278].veinsmobility 	startTime 	1668.1
scalar RSUExampleScenario.node[278].veinsmobility 	totalTime 	227.1
scalar RSUExampleScenario.node[278].veinsmobility 	stopTime 	1895.3
scalar RSUExampleScenario.node[278].veinsmobility 	minSpeed 	0.24929894522042
scalar RSUExampleScenario.node[278].veinsmobility 	maxSpeed 	18.999806497083
scalar RSUExampleScenario.node[278].veinsmobility 	totalDistance 	3409.3668247289
scalar RSUExampleScenario.node[278].veinsmobility 	totalCO2Emission 	707.89272235654
scalar RSUExampleScenario.node[279].veinsmobility 	startTime 	1674.1
scalar RSUExampleScenario.node[279].veinsmobility 	totalTime 	226.9
scalar RSUExampleScenario.node[279].veinsmobility 	stopTime 	1901.1
scalar RSUExampleScenario.node[279].veinsmobility 	minSpeed 	0.25948792840424
scalar RSUExampleScenario.node[279].veinsmobility 	maxSpeed 	18.99997952952
scalar RSUExampleScenario.node[279].veinsmobility 	totalDistance 	3409.6254619461
scalar RSUExampleScenario.node[279].veinsmobility 	totalCO2Emission 	708.49176336931
scalar RSUExampleScenario.node[280].veinsmobility 	startTime 	1680.1
scalar RSUExampleScenario.node[280].veinsmobility 	totalTime 	226.9
scalar RSUExampleScenario.node[280].veinsmobility 	stopTime 	1907.1
scalar RSUExampleScenario.node[280].veinsmobility 	minSpeed 	0.24881348449434
scalar RSUExampleScenario.node[280].veinsmobility 	maxSpeed 	18.99985857548
scalar RSUExampleScenario.node[280].veinsmobility 	totalDistance 	3409.3296866854
scalar RSUExampleScenario.node[280].veinsmobility 	totalCO2Emission 	705.71919737131
scalar RSUExampleScenario.node[281].veinsmobility 	startTime 	1686.1
scalar RSUExampleScenario.node[281].veinsmobility 	totalTime 	226.9
scalar RSUExampleScenario.node[281].veinsmobility 	stopTime 	1913.1
scalar RSUExampleScenario.node[281].veinsmobility 	minSpeed 	0.2572231406155
scalar RSUExampleScenario.node[281].veinsmobility 	maxSpeed 	18.999781202977
scalar RSUExampleScenario.node[281].veinsmobility 	totalDistance 	3409.5473036089
scalar RSUExampleScenario.node[281].veinsmobility 	totalCO2Emission 	702.88279434742
scalar RSUExampleScenario.node[282].veinsmobility 	startTime 	1692.1
scalar RSUExampleScenario.node[282].veinsmobility 	totalTime 	226.7
scalar RSUExampleScenario.node[282].veinsmobility 	stopTime 	1918.9
scalar RSUExampleScenario.node[282].veinsmobility 	minSpeed 	0.25445770212216
scalar RSUExampleScenario.node[282].veinsmobility 	maxSpeed 	18.999942591744
scalar RSUExampleScenario.node[282].veinsmobility 	totalDistance 	3409.889193661
scalar RSUExampleScenario.node[282].veinsmobility 	totalCO2Emission 	706.11357418035
scalar RSUExampleScenario.node[283].veinsmobility 	startTime 	1698.1
scalar RSUExampleScenario.node[283].veinsmobility 	totalTime 	226.8
scalar RSUExampleScenario.node[283].veinsmobility 	stopTime 	1925
scalar RSUExampleScenario.node[283].veinsmobility 	minSpeed 	0.24891300487705
scalar RSUExampleScenario.node[283].veinsmobility 	maxSpeed 	18.999980021708
scalar RSUExampleScenario.node[283].veinsmobility 	totalDistance 	3409.6885841437
scalar RSUExampleScenario.node[283].veinsmobility 	totalCO2Emission 	700.80588561514
scalar RSUExampleScenario.node[284].veinsmobility 	startTime 	1704.1
scalar RSUExampleScenario.node[284].veinsmobility 	totalTime 	226.8
scalar RSUExampleScenario.node[284].veinsmobility 	stopTime 	1931
scalar RSUExampleScenario.node[284].veinsmobility 	minSpeed 	0.24914775814326
scalar RSUExampleScenario.node[284].veinsmobility 	maxSpeed 	18.999941610184
scalar RSUExampleScenario.node[284].veinsmobility 	totalDistance 	3409.4375488105
scalar RSUExampleScenario.node[284].veinsmobility 	totalCO2Emission 	705.89949385331
scalar RSUExampleScenario.node[285].veinsmobility 	startTime 	1710.1
scalar RSUExampleScenario.node[285].veinsmobility 	totalTime 	226.8
scalar RSUExampleScenario.node[285].veinsmobility 	stopTime 	1937
scalar RSUExampleScenario.node[285].veinsmobility 	minSpeed 	0.25333170494088
scalar RSUExampleScenario.node[285].veinsmobility 	maxSpeed 	18.999893185406
scalar RSUExampleScenario.node[285].veinsmobility 	totalDistance 	3409.3711248783
scalar RSUExampleScenario.node[285].veinsmobility 	totalCO2Emission 	706.41682809397
scalar RSUExampleScenario.node[286].veinsmobility 	startTime 	1716.1
scalar RSUExampleScenario.node[286].veinsmobility 	totalTime 	227.1
scalar RSUExampleScenario.node[286].veinsmobility 	stopTime 	1943.3
scalar RSUExampleScenario.node[286].veinsmobility 	minSpeed 	0.2551451562494
scalar RSUExampleScenario.node[286].veinsmobility 	maxSpeed 	18.999592440783
scalar RSUExampleScenario.node[286].veinsmobility 	totalDistance 	3409.3919506362
scalar RSUExampleScenario.node[286].veinsmobility 	totalCO2Emission 	704.85801384049
scalar RSUExampleScenario.node[287].veinsmobility 	startTime 	1722.1
scalar RSUExampleScenario.node[287].veinsmobility 	totalTime 	226.8
scalar RSUExampleScenario.node[287].veinsmobility 	stopTime 	1949
scalar RSUExampleScenario.node[287].veinsmobility 	minSpeed 	0.25772647537896
scalar RSUExampleScenario.node[287].veinsmobility 	maxSpeed 	18.999940017059
scalar RSUExampleScenario.node[287].veinsmobility 	totalDistance 	3409.0284906931
scalar RSUExampleScenario.node[287].veinsmobility 	totalCO2Emission 	704.98011265981
scalar RSUExampleScenario.node[288].veinsmobility 	startTime 	1728.1
scalar RSUExampleScenario.node[288].veinsmobility 	totalTime 	226.9
scalar RSUExampleScenario.node[288].veinsmobility 	stopTime 	1955.1
scalar RSUExampleScenario.node[288].veinsmobility 	minSpeed 	0.2514553695838
scalar RSUExampleScenario.node[288].veinsmobility 	maxSpeed 	18.999865467893
scalar RSUExampleScenario.node[288].veinsmobility 	totalDistance 	3409.2529189638
scalar RSUExampleScenario.node[288].veinsmobility 	totalCO2Emission 	703.83267187123
scalar RSUExampleScenario.node[289].veinsmobility 	startTime 	1734.1
scalar RSUExampleScenario.node[289].veinsmobility 	totalTime 	227
scalar RSUExampleScenario.node[289].veinsmobility 	stopTime 	1961.2
scalar RSUExampleScenario.node[289].veinsmobility 	minSpeed 	0.25759771389933
scalar RSUExampleScenario.node[289].veinsmobility 	maxSpeed 	18.999965409869
scalar RSUExampleScenario.node[289].veinsmobility 	totalDistance 	3409.1463497758
scalar RSUExampleScenario.node[289].veinsmobility 	totalCO2Emission 	703.76661272168
scalar RSUExampleScenario.node[290].veinsmobility 	startTime 	1740.1
scalar RSUExampleScenario.node[290].veinsmobility 	totalTime 	227
scalar RSUExampleScenario.node[290].veinsmobility 	stopTime 	1967.2
scalar RSUExampleScenario.node[290].veinsmobility 	minSpeed 	0.24907845940394
scalar RSUExampleScenario.node[290].veinsmobility 	maxSpeed 	18.999792209475
scalar RSUExampleScenario.node[290].veinsmobility 	totalDistance 	3409.8458997512
scalar RSUExampleScenario.node[290].veinsmobility 	totalCO2Emission 	706.62967164952
scalar RSUExampleScenario.node[291].veinsmobility 	startTime 	1746.1
scalar RSUExampleScenario.node[291].veinsmobility 	totalTime 	227.1
scalar RSUExampleScenario.node[291].veinsmobility 	stopTime 	1973.3
scalar RSUExampleScenario.node[291].veinsmobility 	minSpeed 	0.25403263185313
scalar RSUExampleScenario.node[291].veinsmobility 	maxSpeed 	18.999973792285
scalar RSUExampleScenario.node[291].veinsmobility 	totalDistance 	3409.1606888688
scalar RSUExampleScenario.node[291].veinsmobility 	totalCO2Emission 	708.41890782761
scalar RSUExampleScenario.node[292].veinsmobility 	startTime 	1752.1
scalar RSUExampleScenario.node[292].veinsmobility 	totalTime 	226.6
scalar RSUExampleScenario.node[292].veinsmobility 	stopTime 	1978.8
scalar RSUExampleScenario.node[292].veinsmobility 	minSpeed 	0.25469294651062
scalar RSUExampleScenario.node[292].veinsmobility 	maxSpeed 	18.999995774711
scalar RSUExampleScenario.node[292].veinsmobility 	totalDistance 	3409.5264241953
scalar RSUExampleScenario.node[292].veinsmobility 	totalCO2Emission 	712.91979913567
scalar RSUExampleScenario.node[293].veinsmobility 	startTime 	1758.1
scalar RSUExampleScenario.node[293].veinsmobility 	totalTime 	227
scalar RSUExampleScenario.node[293].veinsmobility 	stopTime 	1985.2
scalar RSUExampleScenario.node[293].veinsmobility 	minSpeed 	0.24742888522451
scalar RSUExampleScenario.node[293].veinsmobility 	maxSpeed 	18.99992736144
scalar RSUExampleScenario.node[293].veinsmobility 	totalDistance 	3409.8350125205
scalar RSUExampleScenario.node[293].veinsmobility 	totalCO2Emission 	711.1395230652
scalar RSUExampleScenario.node[294].veinsmobility 	startTime 	1764.1
scalar RSUExampleScenario.node[294].veinsmobility 	totalTime 	226.8
scalar RSUExampleScenario.node[294].veinsmobility 	stopTime 	1991
scalar RSUExampleScenario.node[294].veinsmobility 	minSpeed 	0.25527127017942
scalar RSUExampleScenario.node[294].veinsmobility 	maxSpeed 	18.999953800554
scalar RSUExampleScenario.node[294].veinsmobility 	totalDistance 	3409.2698765449
scalar RSUExampleScenario.node[294].veinsmobility 	totalCO2Emission 	707.76786611559
scalar RSUExampleScenario.node[295].veinsmobility 	startTime 	1770.1
scalar RSUExampleScenario.node[295].veinsmobility 	totalTime 	227
scalar RSUExampleScenario.node[295].veinsmobility 	stopTime 	1997.2
scalar RSUExampleScenario.node[295].veinsmobility 	minSpeed 	0.24944805269944
scalar RSUExampleScenario.node[295].veinsmobility 	maxSpeed 	18.999942777832
scalar RSUExampleScenario.node[295].veinsmobility 	totalDistance 	3409.6280462139
scalar RSUExampleScenario.node[295].veinsmobility 	totalCO2Emission 	709.32576323706
scalar RSUExampleScenario.node[296].veinsmobility 	startTime 	1776.1
scalar RSUExampleScenario.node[296].veinsmobility 	totalTime 	223.8
scalar RSUExampleScenario.node[296].veinsmobility 	stopTime 	2000
scalar RSUExampleScenario.node[296].veinsmobility 	minSpeed 	0.25798900151486
scalar RSUExampleScenario.node[296].veinsmobility 	maxSpeed 	18.999998936686
scalar RSUExampleScenario.node[296].veinsmobility 	totalDistance 	3388.6156248268
scalar RSUExampleScenario.node[296].veinsmobility 	totalCO2Emission 	693.9871027016
scalar RSUExampleScenario.node[297].veinsmobility 	startTime 	1782.1
scalar RSUExampleScenario.node[297].veinsmobility 	totalTime 	217.8
scalar RSUExampleScenario.node[297].veinsmobility 	stopTime 	2000
scalar RSUExampleScenario.node[297].veinsmobility 	minSpeed 	0.24810694597056
scalar RSUExampleScenario.node[297].veinsmobility 	maxSpeed 	18.999954626961
scalar RSUExampleScenario.node[297].veinsmobility 	totalDistance 	3323.6343392674
scalar RSUExampleScenario.node[297].veinsmobility 	totalCO2Emission 	681.25027559841
scalar RSUExampleScenario.node[298].veinsmobility 	startTime 	1788.1
scalar RSUExampleScenario.node[298].veinsmobility 	totalTime 	211.8
scalar RSUExampleScenario.node[298].veinsmobility 	stopTime 	2000
scalar RSUExampleScenario.node[298].veinsmobility 	minSpeed 	0.25718111223378
scalar RSUExampleScenario.node[298].veinsmobility 	maxSpeed 	18.999990143564
scalar RSUExampleScenario.node[298].veinsmobility 	totalDistance 	3244.9213076836
scalar RSUExampleScenario.node[298].veinsmobility 	totalCO2Emission 	665.55267568712
scalar RSUExampleScenario.node[299].veinsmobility 	startTime 	1794.1
scalar RSUExampleScenario.node[299].veinsmobility 	totalTime 	205.8
scalar RSUExampleScenario.node[299].veinsmobility 	stopTime 	2000
scalar RSUExampleScenario.node[299].veinsmobility 	minSpeed 	0.25128664011555
scalar RSUExampleScenario.node[299].veinsmobility 	maxSpeed 	18.999564359146
scalar RSUExampleScenario.node[299].veinsmobility 	totalDistance 	3161.7024272048
scalar RSUExampleScenario.node[299].veinsmobility 	totalCO2Emission 	655.89194396033
