version 2
run statisticLeach-843-20150322-05:20:12-14328
attr c 1
attr configname statisticLeach
attr datetime 20150322-05:20:12
attr experiment statisticLeach
attr inifile omnetpp.ini
attr iterationvars "$p=1/2, $c=1"
attr iterationvars2 "$p=1/2, $c=1, $repetition=3"
attr measurement "$p=1/2, $c=1"
attr network RSUExampleScenario
attr p 1/2
attr processid 14328
attr repetition 3
attr replication #3
attr resultdir results
attr runnumber 843
attr seedset 843

scalar . 	c 	1
scalar RSUExampleScenario.node[0].appl 	meanClusterNodes 	0
scalar RSUExampleScenario.node[0].appl 	meanClusterHeadUtility 	0
scalar RSUExampleScenario.node[0].appl 	NumberofCH 	0.51351351351351
scalar RSUExampleScenario.node[0].appl 	NumberofON 	0
scalar RSUExampleScenario.node[0].appl 	NumberofFN 	0.48648648648649
scalar RSUExampleScenario.node[0].veinsmobility 	startTime 	0.1
scalar RSUExampleScenario.node[0].veinsmobility 	totalTime 	449.9
scalar RSUExampleScenario.node[0].veinsmobility 	stopTime 	450
scalar RSUExampleScenario.node[0].veinsmobility 	minSpeed 	0
scalar RSUExampleScenario.node[0].veinsmobility 	maxSpeed 	13.999971544433
scalar RSUExampleScenario.node[0].veinsmobility 	totalDistance 	3132.8981906196
scalar RSUExampleScenario.node[0].veinsmobility 	totalCO2Emission 	836.09514961084
scalar RSUExampleScenario.node[1].appl 	meanClusterNodes 	0
scalar RSUExampleScenario.node[1].appl 	meanClusterHeadUtility 	0
scalar RSUExampleScenario.node[1].appl 	NumberofCH 	0.48648648648649
scalar RSUExampleScenario.node[1].appl 	NumberofON 	0
scalar RSUExampleScenario.node[1].appl 	NumberofFN 	0.51351351351351
scalar RSUExampleScenario.node[1].veinsmobility 	startTime 	2.5
scalar RSUExampleScenario.node[1].veinsmobility 	totalTime 	447.5
scalar RSUExampleScenario.node[1].veinsmobility 	stopTime 	450
scalar RSUExampleScenario.node[1].veinsmobility 	minSpeed 	0
scalar RSUExampleScenario.node[1].veinsmobility 	maxSpeed 	13.999987010404
scalar RSUExampleScenario.node[1].veinsmobility 	totalDistance 	3081.2978210379
scalar RSUExampleScenario.node[1].veinsmobility 	totalCO2Emission 	828.5210315542
scalar RSUExampleScenario.node[10].appl 	meanClusterNodes 	0
scalar RSUExampleScenario.node[10].appl 	meanClusterHeadUtility 	0
scalar RSUExampleScenario.node[10].appl 	NumberofCH 	0.48648648648649
scalar RSUExampleScenario.node[10].appl 	NumberofON 	0
scalar RSUExampleScenario.node[10].appl 	NumberofFN 	0.51351351351351
scalar RSUExampleScenario.node[10].veinsmobility 	startTime 	24.2
scalar RSUExampleScenario.node[10].veinsmobility 	totalTime 	425.8
scalar RSUExampleScenario.node[10].veinsmobility 	stopTime 	450
scalar RSUExampleScenario.node[10].veinsmobility 	minSpeed 	0
scalar RSUExampleScenario.node[10].veinsmobility 	maxSpeed 	13.999967532381
scalar RSUExampleScenario.node[10].veinsmobility 	totalDistance 	2794.910655535
scalar RSUExampleScenario.node[10].veinsmobility 	totalCO2Emission 	759.25881787701
scalar RSUExampleScenario.node[11].appl 	meanClusterNodes 	0
scalar RSUExampleScenario.node[11].appl 	meanClusterHeadUtility 	0
scalar RSUExampleScenario.node[11].appl 	NumberofCH 	0.48648648648649
scalar RSUExampleScenario.node[11].appl 	NumberofON 	0
scalar RSUExampleScenario.node[11].appl 	NumberofFN 	0.51351351351351
scalar RSUExampleScenario.node[11].veinsmobility 	startTime 	26.6
scalar RSUExampleScenario.node[11].veinsmobility 	totalTime 	423.4
scalar RSUExampleScenario.node[11].veinsmobility 	stopTime 	450
scalar RSUExampleScenario.node[11].veinsmobility 	minSpeed 	0
scalar RSUExampleScenario.node[11].veinsmobility 	maxSpeed 	13.999914122073
scalar RSUExampleScenario.node[11].veinsmobility 	totalDistance 	2753.1795403786
scalar RSUExampleScenario.node[11].veinsmobility 	totalCO2Emission 	754.29242658904
scalar RSUExampleScenario.node[12].appl 	meanClusterNodes 	0
scalar RSUExampleScenario.node[12].appl 	meanClusterHeadUtility 	0
scalar RSUExampleScenario.node[12].appl 	NumberofCH 	0.51351351351351
scalar RSUExampleScenario.node[12].appl 	NumberofON 	0
scalar RSUExampleScenario.node[12].appl 	NumberofFN 	0.48648648648649
scalar RSUExampleScenario.node[12].veinsmobility 	startTime 	29
scalar RSUExampleScenario.node[12].veinsmobility 	totalTime 	421
scalar RSUExampleScenario.node[12].veinsmobility 	stopTime 	450
scalar RSUExampleScenario.node[12].veinsmobility 	minSpeed 	0
scalar RSUExampleScenario.node[12].veinsmobility 	maxSpeed 	13.999969687371
scalar RSUExampleScenario.node[12].veinsmobility 	totalDistance 	2722.8680821279
scalar RSUExampleScenario.node[12].veinsmobility 	totalCO2Emission 	744.92012757811
scalar RSUExampleScenario.node[13].appl 	meanClusterNodes 	0
scalar RSUExampleScenario.node[13].appl 	meanClusterHeadUtility 	0
scalar RSUExampleScenario.node[13].appl 	NumberofCH 	0.51351351351351
scalar RSUExampleScenario.node[13].appl 	NumberofON 	0
scalar RSUExampleScenario.node[13].appl 	NumberofFN 	0.48648648648649
scalar RSUExampleScenario.node[13].veinsmobility 	startTime 	31.4
scalar RSUExampleScenario.node[13].veinsmobility 	totalTime 	418.6
scalar RSUExampleScenario.node[13].veinsmobility 	stopTime 	450
scalar RSUExampleScenario.node[13].veinsmobility 	minSpeed 	0
scalar RSUExampleScenario.node[13].veinsmobility 	maxSpeed 	13.999986869355
scalar RSUExampleScenario.node[13].veinsmobility 	totalDistance 	2680.7883878388
scalar RSUExampleScenario.node[13].veinsmobility 	totalCO2Emission 	739.0847362749
scalar RSUExampleScenario.node[14].appl 	meanClusterNodes 	0
scalar RSUExampleScenario.node[14].appl 	meanClusterHeadUtility 	0
scalar RSUExampleScenario.node[14].appl 	NumberofCH 	0.51351351351351
scalar RSUExampleScenario.node[14].appl 	NumberofON 	0
scalar RSUExampleScenario.node[14].appl 	NumberofFN 	0.48648648648649
scalar RSUExampleScenario.node[14].veinsmobility 	startTime 	33.8
scalar RSUExampleScenario.node[14].veinsmobility 	totalTime 	416.2
scalar RSUExampleScenario.node[14].veinsmobility 	stopTime 	450
scalar RSUExampleScenario.node[14].veinsmobility 	minSpeed 	0
scalar RSUExampleScenario.node[14].veinsmobility 	maxSpeed 	13.999862989762
scalar RSUExampleScenario.node[14].veinsmobility 	totalDistance 	2652.6443117887
scalar RSUExampleScenario.node[14].veinsmobility 	totalCO2Emission 	734.86594900433
scalar RSUExampleScenario.node[15].appl 	meanClusterNodes 	0
scalar RSUExampleScenario.node[15].appl 	meanClusterHeadUtility 	0
scalar RSUExampleScenario.node[15].appl 	NumberofCH 	0.54054054054054
scalar RSUExampleScenario.node[15].appl 	NumberofON 	0
scalar RSUExampleScenario.node[15].appl 	NumberofFN 	0.45945945945946
scalar RSUExampleScenario.node[15].veinsmobility 	startTime 	36.2
scalar RSUExampleScenario.node[15].veinsmobility 	totalTime 	413.8
scalar RSUExampleScenario.node[15].veinsmobility 	stopTime 	450
scalar RSUExampleScenario.node[15].veinsmobility 	minSpeed 	0
scalar RSUExampleScenario.node[15].veinsmobility 	maxSpeed 	13.999913489744
scalar RSUExampleScenario.node[15].veinsmobility 	totalDistance 	2613.0066988766
scalar RSUExampleScenario.node[15].veinsmobility 	totalCO2Emission 	729.35352025977
scalar RSUExampleScenario.node[16].appl 	meanClusterNodes 	0
scalar RSUExampleScenario.node[16].appl 	meanClusterHeadUtility 	0
scalar RSUExampleScenario.node[16].appl 	NumberofCH 	0.48648648648649
scalar RSUExampleScenario.node[16].appl 	NumberofON 	0
scalar RSUExampleScenario.node[16].appl 	NumberofFN 	0.51351351351351
scalar RSUExampleScenario.node[16].veinsmobility 	startTime 	38.6
scalar RSUExampleScenario.node[16].veinsmobility 	totalTime 	411.4
scalar RSUExampleScenario.node[16].veinsmobility 	stopTime 	450
scalar RSUExampleScenario.node[16].veinsmobility 	minSpeed 	0
scalar RSUExampleScenario.node[16].veinsmobility 	maxSpeed 	13.999976196864
scalar RSUExampleScenario.node[16].veinsmobility 	totalDistance 	2583.6576067194
scalar RSUExampleScenario.node[16].veinsmobility 	totalCO2Emission 	722.68297898176
scalar RSUExampleScenario.node[17].appl 	meanClusterNodes 	0
scalar RSUExampleScenario.node[17].appl 	meanClusterHeadUtility 	0
scalar RSUExampleScenario.node[17].appl 	NumberofCH 	0.48648648648649
scalar RSUExampleScenario.node[17].appl 	NumberofON 	0
scalar RSUExampleScenario.node[17].appl 	NumberofFN 	0.51351351351351
scalar RSUExampleScenario.node[17].veinsmobility 	startTime 	41
scalar RSUExampleScenario.node[17].veinsmobility 	totalTime 	409
scalar RSUExampleScenario.node[17].veinsmobility 	stopTime 	450
scalar RSUExampleScenario.node[17].veinsmobility 	minSpeed 	0
scalar RSUExampleScenario.node[17].veinsmobility 	maxSpeed 	13.999983068968
scalar RSUExampleScenario.node[17].veinsmobility 	totalDistance 	2540.4229866922
scalar RSUExampleScenario.node[17].veinsmobility 	totalCO2Emission 	716.47259238106
scalar RSUExampleScenario.node[18].appl 	meanClusterNodes 	0
scalar RSUExampleScenario.node[18].appl 	meanClusterHeadUtility 	0
scalar RSUExampleScenario.node[18].appl 	NumberofCH 	0.48648648648649
scalar RSUExampleScenario.node[18].appl 	NumberofON 	0
scalar RSUExampleScenario.node[18].appl 	NumberofFN 	0.51351351351351
scalar RSUExampleScenario.node[18].veinsmobility 	startTime 	43.4
scalar RSUExampleScenario.node[18].veinsmobility 	totalTime 	406.6
scalar RSUExampleScenario.node[18].veinsmobility 	stopTime 	450
scalar RSUExampleScenario.node[18].veinsmobility 	minSpeed 	0
scalar RSUExampleScenario.node[18].veinsmobility 	maxSpeed 	13.99997952274
scalar RSUExampleScenario.node[18].veinsmobility 	totalDistance 	2510.099837167
scalar RSUExampleScenario.node[18].veinsmobility 	totalCO2Emission 	712.13483417815
scalar RSUExampleScenario.node[19].appl 	meanClusterNodes 	0
scalar RSUExampleScenario.node[19].appl 	meanClusterHeadUtility 	0
scalar RSUExampleScenario.node[19].appl 	NumberofCH 	0.45945945945946
scalar RSUExampleScenario.node[19].appl 	NumberofON 	0
scalar RSUExampleScenario.node[19].appl 	NumberofFN 	0.54054054054054
scalar RSUExampleScenario.node[19].veinsmobility 	startTime 	45.8
scalar RSUExampleScenario.node[19].veinsmobility 	totalTime 	404.2
scalar RSUExampleScenario.node[19].veinsmobility 	stopTime 	450
scalar RSUExampleScenario.node[19].veinsmobility 	minSpeed 	0
scalar RSUExampleScenario.node[19].veinsmobility 	maxSpeed 	13.999898921673
scalar RSUExampleScenario.node[19].veinsmobility 	totalDistance 	2472.4899019994
scalar RSUExampleScenario.node[19].veinsmobility 	totalCO2Emission 	709.30323773209
scalar RSUExampleScenario.node[2].appl 	meanClusterNodes 	0
scalar RSUExampleScenario.node[2].appl 	meanClusterHeadUtility 	0
scalar RSUExampleScenario.node[2].appl 	NumberofCH 	0.48648648648649
scalar RSUExampleScenario.node[2].appl 	NumberofON 	0
scalar RSUExampleScenario.node[2].appl 	NumberofFN 	0.51351351351351
scalar RSUExampleScenario.node[2].veinsmobility 	startTime 	4.9
scalar RSUExampleScenario.node[2].veinsmobility 	totalTime 	445.1
scalar RSUExampleScenario.node[2].veinsmobility 	stopTime 	450
scalar RSUExampleScenario.node[2].veinsmobility 	minSpeed 	0
scalar RSUExampleScenario.node[2].veinsmobility 	maxSpeed 	13.999933382438
scalar RSUExampleScenario.node[2].veinsmobility 	totalDistance 	3040.5934786859
scalar RSUExampleScenario.node[2].veinsmobility 	totalCO2Emission 	820.4615599378
scalar RSUExampleScenario.node[20].appl 	meanClusterNodes 	0
scalar RSUExampleScenario.node[20].appl 	meanClusterHeadUtility 	0
scalar RSUExampleScenario.node[20].appl 	NumberofCH 	0.48648648648649
scalar RSUExampleScenario.node[20].appl 	NumberofON 	0
scalar RSUExampleScenario.node[20].appl 	NumberofFN 	0.51351351351351
scalar RSUExampleScenario.node[20].veinsmobility 	startTime 	48.3
scalar RSUExampleScenario.node[20].veinsmobility 	totalTime 	401.7
scalar RSUExampleScenario.node[20].veinsmobility 	stopTime 	450
scalar RSUExampleScenario.node[20].veinsmobility 	minSpeed 	0
scalar RSUExampleScenario.node[20].veinsmobility 	maxSpeed 	13.999882731631
scalar RSUExampleScenario.node[20].veinsmobility 	totalDistance 	2439.1813361634
scalar RSUExampleScenario.node[20].veinsmobility 	totalCO2Emission 	701.42612068471
scalar RSUExampleScenario.node[21].appl 	meanClusterNodes 	0
scalar RSUExampleScenario.node[21].appl 	meanClusterHeadUtility 	0
scalar RSUExampleScenario.node[21].appl 	NumberofCH 	0.48648648648649
scalar RSUExampleScenario.node[21].appl 	NumberofON 	0
scalar RSUExampleScenario.node[21].appl 	NumberofFN 	0.51351351351351
scalar RSUExampleScenario.node[21].veinsmobility 	startTime 	50.7
scalar RSUExampleScenario.node[21].veinsmobility 	totalTime 	399.3
scalar RSUExampleScenario.node[21].veinsmobility 	stopTime 	450
scalar RSUExampleScenario.node[21].veinsmobility 	minSpeed 	0
scalar RSUExampleScenario.node[21].veinsmobility 	maxSpeed 	13.999734338876
scalar RSUExampleScenario.node[21].veinsmobility 	totalDistance 	2403.7906194922
scalar RSUExampleScenario.node[21].veinsmobility 	totalCO2Emission 	696.94739322057
scalar RSUExampleScenario.node[22].appl 	meanClusterNodes 	0
scalar RSUExampleScenario.node[22].appl 	meanClusterHeadUtility 	0
scalar RSUExampleScenario.node[22].appl 	NumberofCH 	0.48648648648649
scalar RSUExampleScenario.node[22].appl 	NumberofON 	0
scalar RSUExampleScenario.node[22].appl 	NumberofFN 	0.51351351351351
scalar RSUExampleScenario.node[22].veinsmobility 	startTime 	53.1
scalar RSUExampleScenario.node[22].veinsmobility 	totalTime 	396.9
scalar RSUExampleScenario.node[22].veinsmobility 	stopTime 	450
scalar RSUExampleScenario.node[22].veinsmobility 	minSpeed 	0
scalar RSUExampleScenario.node[22].veinsmobility 	maxSpeed 	13.999897320254
scalar RSUExampleScenario.node[22].veinsmobility 	totalDistance 	2375.8441232141
scalar RSUExampleScenario.node[22].veinsmobility 	totalCO2Emission 	688.88439623958
scalar RSUExampleScenario.node[23].appl 	meanClusterNodes 	0
scalar RSUExampleScenario.node[23].appl 	meanClusterHeadUtility 	0
scalar RSUExampleScenario.node[23].appl 	NumberofCH 	0.48648648648649
scalar RSUExampleScenario.node[23].appl 	NumberofON 	0
scalar RSUExampleScenario.node[23].appl 	NumberofFN 	0.51351351351351
scalar RSUExampleScenario.node[23].veinsmobility 	startTime 	55.5
scalar RSUExampleScenario.node[23].veinsmobility 	totalTime 	394.5
scalar RSUExampleScenario.node[23].veinsmobility 	stopTime 	450
scalar RSUExampleScenario.node[23].veinsmobility 	minSpeed 	0
scalar RSUExampleScenario.node[23].veinsmobility 	maxSpeed 	13.999936963504
scalar RSUExampleScenario.node[23].veinsmobility 	totalDistance 	2334.2270318456
scalar RSUExampleScenario.node[23].veinsmobility 	totalCO2Emission 	683.49532233655
scalar RSUExampleScenario.node[24].appl 	meanClusterNodes 	0
scalar RSUExampleScenario.node[24].appl 	meanClusterHeadUtility 	0
scalar RSUExampleScenario.node[24].appl 	NumberofCH 	0.48648648648649
scalar RSUExampleScenario.node[24].appl 	NumberofON 	0
scalar RSUExampleScenario.node[24].appl 	NumberofFN 	0.51351351351351
scalar RSUExampleScenario.node[24].veinsmobility 	startTime 	57.9
scalar RSUExampleScenario.node[24].veinsmobility 	totalTime 	392.1
scalar RSUExampleScenario.node[24].veinsmobility 	stopTime 	450
scalar RSUExampleScenario.node[24].veinsmobility 	minSpeed 	0
scalar RSUExampleScenario.node[24].veinsmobility 	maxSpeed 	13.999929314209
scalar RSUExampleScenario.node[24].veinsmobility 	totalDistance 	2306.5222759078
scalar RSUExampleScenario.node[24].veinsmobility 	totalCO2Emission 	676.29034857028
scalar RSUExampleScenario.node[25].appl 	meanClusterNodes 	0
scalar RSUExampleScenario.node[25].appl 	meanClusterHeadUtility 	0
scalar RSUExampleScenario.node[25].appl 	NumberofCH 	0.48648648648649
scalar RSUExampleScenario.node[25].appl 	NumberofON 	0
scalar RSUExampleScenario.node[25].appl 	NumberofFN 	0.51351351351351
scalar RSUExampleScenario.node[25].veinsmobility 	startTime 	60.3
scalar RSUExampleScenario.node[25].veinsmobility 	totalTime 	389.7
scalar RSUExampleScenario.node[25].veinsmobility 	stopTime 	450
scalar RSUExampleScenario.node[25].veinsmobility 	minSpeed 	0
scalar RSUExampleScenario.node[25].veinsmobility 	maxSpeed 	13.999953134507
scalar RSUExampleScenario.node[25].veinsmobility 	totalDistance 	2268.2892187675
scalar RSUExampleScenario.node[25].veinsmobility 	totalCO2Emission 	671.92757957222
scalar RSUExampleScenario.node[26].appl 	meanClusterNodes 	0
scalar RSUExampleScenario.node[26].appl 	meanClusterHeadUtility 	0
scalar RSUExampleScenario.node[26].appl 	NumberofCH 	0.48648648648649
scalar RSUExampleScenario.node[26].appl 	NumberofON 	0
scalar RSUExampleScenario.node[26].appl 	NumberofFN 	0.51351351351351
scalar RSUExampleScenario.node[26].veinsmobility 	startTime 	62.7
scalar RSUExampleScenario.node[26].veinsmobility 	totalTime 	387.3
scalar RSUExampleScenario.node[26].veinsmobility 	stopTime 	450
scalar RSUExampleScenario.node[26].veinsmobility 	minSpeed 	0
scalar RSUExampleScenario.node[26].veinsmobility 	maxSpeed 	13.99978326347
scalar RSUExampleScenario.node[26].veinsmobility 	totalDistance 	2239.8895688475
scalar RSUExampleScenario.node[26].veinsmobility 	totalCO2Emission 	665.21824791741
scalar RSUExampleScenario.node[27].appl 	meanClusterNodes 	0
scalar RSUExampleScenario.node[27].appl 	meanClusterHeadUtility 	0
scalar RSUExampleScenario.node[27].appl 	NumberofCH 	0.45945945945946
scalar RSUExampleScenario.node[27].appl 	NumberofON 	0
scalar RSUExampleScenario.node[27].appl 	NumberofFN 	0.54054054054054
scalar RSUExampleScenario.node[27].veinsmobility 	startTime 	65.1
scalar RSUExampleScenario.node[27].veinsmobility 	totalTime 	384.9
scalar RSUExampleScenario.node[27].veinsmobility 	stopTime 	450
scalar RSUExampleScenario.node[27].veinsmobility 	minSpeed 	0
scalar RSUExampleScenario.node[27].veinsmobility 	maxSpeed 	13.999910944328
scalar RSUExampleScenario.node[27].veinsmobility 	totalDistance 	2199.9588244684
scalar RSUExampleScenario.node[27].veinsmobility 	totalCO2Emission 	662.89416478602
scalar RSUExampleScenario.node[28].appl 	meanClusterNodes 	0
scalar RSUExampleScenario.node[28].appl 	meanClusterHeadUtility 	0
scalar RSUExampleScenario.node[28].appl 	NumberofCH 	0.48648648648649
scalar RSUExampleScenario.node[28].appl 	NumberofON 	0
scalar RSUExampleScenario.node[28].appl 	NumberofFN 	0.51351351351351
scalar RSUExampleScenario.node[28].veinsmobility 	startTime 	67.5
scalar RSUExampleScenario.node[28].veinsmobility 	totalTime 	382.5
scalar RSUExampleScenario.node[28].veinsmobility 	stopTime 	450
scalar RSUExampleScenario.node[28].veinsmobility 	minSpeed 	0
scalar RSUExampleScenario.node[28].veinsmobility 	maxSpeed 	13.999994907291
scalar RSUExampleScenario.node[28].veinsmobility 	totalDistance 	2167.5511543296
scalar RSUExampleScenario.node[28].veinsmobility 	totalCO2Emission 	654.59546651549
scalar RSUExampleScenario.node[29].appl 	meanClusterNodes 	0
scalar RSUExampleScenario.node[29].appl 	meanClusterHeadUtility 	0
scalar RSUExampleScenario.node[29].appl 	NumberofCH 	0.48648648648649
scalar RSUExampleScenario.node[29].appl 	NumberofON 	0
scalar RSUExampleScenario.node[29].appl 	NumberofFN 	0.51351351351351
scalar RSUExampleScenario.node[29].veinsmobility 	startTime 	69.9
scalar RSUExampleScenario.node[29].veinsmobility 	totalTime 	380.1
scalar RSUExampleScenario.node[29].veinsmobility 	stopTime 	450
scalar RSUExampleScenario.node[29].veinsmobility 	minSpeed 	0
scalar RSUExampleScenario.node[29].veinsmobility 	maxSpeed 	13.999735065277
scalar RSUExampleScenario.node[29].veinsmobility 	totalDistance 	2132.7485238313
scalar RSUExampleScenario.node[29].veinsmobility 	totalCO2Emission 	651.99385325916
scalar RSUExampleScenario.node[3].appl 	meanClusterNodes 	0
scalar RSUExampleScenario.node[3].appl 	meanClusterHeadUtility 	0
scalar RSUExampleScenario.node[3].appl 	NumberofCH 	0.48648648648649
scalar RSUExampleScenario.node[3].appl 	NumberofON 	0
scalar RSUExampleScenario.node[3].appl 	NumberofFN 	0.51351351351351
scalar RSUExampleScenario.node[3].veinsmobility 	startTime 	7.3
scalar RSUExampleScenario.node[3].veinsmobility 	totalTime 	442.7
scalar RSUExampleScenario.node[3].veinsmobility 	stopTime 	450
scalar RSUExampleScenario.node[3].veinsmobility 	minSpeed 	0
scalar RSUExampleScenario.node[3].veinsmobility 	maxSpeed 	13.9998722478
scalar RSUExampleScenario.node[3].veinsmobility 	totalDistance 	2992.9124068831
scalar RSUExampleScenario.node[3].veinsmobility 	totalCO2Emission 	814.32840453239
scalar RSUExampleScenario.node[30].appl 	meanClusterNodes 	0
scalar RSUExampleScenario.node[30].appl 	meanClusterHeadUtility 	0
scalar RSUExampleScenario.node[30].appl 	NumberofCH 	0.48648648648649
scalar RSUExampleScenario.node[30].appl 	NumberofON 	0
scalar RSUExampleScenario.node[30].appl 	NumberofFN 	0.51351351351351
scalar RSUExampleScenario.node[30].veinsmobility 	startTime 	72.4
scalar RSUExampleScenario.node[30].veinsmobility 	totalTime 	377.6
scalar RSUExampleScenario.node[30].veinsmobility 	stopTime 	450
scalar RSUExampleScenario.node[30].veinsmobility 	minSpeed 	0
scalar RSUExampleScenario.node[30].veinsmobility 	maxSpeed 	13.999825905247
scalar RSUExampleScenario.node[30].veinsmobility 	totalDistance 	2102.3836779824
scalar RSUExampleScenario.node[30].veinsmobility 	totalCO2Emission 	644.11643146647
scalar RSUExampleScenario.node[31].appl 	meanClusterNodes 	0
scalar RSUExampleScenario.node[31].appl 	meanClusterHeadUtility 	0
scalar RSUExampleScenario.node[31].appl 	NumberofCH 	0.54054054054054
scalar RSUExampleScenario.node[31].appl 	NumberofON 	0
scalar RSUExampleScenario.node[31].appl 	NumberofFN 	0.45945945945946
scalar RSUExampleScenario.node[31].veinsmobility 	startTime 	74.8
scalar RSUExampleScenario.node[31].veinsmobility 	totalTime 	375.2
scalar RSUExampleScenario.node[31].veinsmobility 	stopTime 	450
scalar RSUExampleScenario.node[31].veinsmobility 	minSpeed 	0
scalar RSUExampleScenario.node[31].veinsmobility 	maxSpeed 	13.999818597042
scalar RSUExampleScenario.node[31].veinsmobility 	totalDistance 	2064.6232633225
scalar RSUExampleScenario.node[31].veinsmobility 	totalCO2Emission 	639.10933581798
scalar RSUExampleScenario.node[32].appl 	meanClusterNodes 	0
scalar RSUExampleScenario.node[32].appl 	meanClusterHeadUtility 	0
scalar RSUExampleScenario.node[32].appl 	NumberofCH 	0.51351351351351
scalar RSUExampleScenario.node[32].appl 	NumberofON 	0
scalar RSUExampleScenario.node[32].appl 	NumberofFN 	0.48648648648649
scalar RSUExampleScenario.node[32].veinsmobility 	startTime 	77.2
scalar RSUExampleScenario.node[32].veinsmobility 	totalTime 	372.8
scalar RSUExampleScenario.node[32].veinsmobility 	stopTime 	450
scalar RSUExampleScenario.node[32].veinsmobility 	minSpeed 	0
scalar RSUExampleScenario.node[32].veinsmobility 	maxSpeed 	13.999920903281
scalar RSUExampleScenario.node[32].veinsmobility 	totalDistance 	2032.2634160945
scalar RSUExampleScenario.node[32].veinsmobility 	totalCO2Emission 	634.13370291268
scalar RSUExampleScenario.node[33].appl 	meanClusterNodes 	0
scalar RSUExampleScenario.node[33].appl 	meanClusterHeadUtility 	0
scalar RSUExampleScenario.node[33].appl 	NumberofCH 	0.54054054054054
scalar RSUExampleScenario.node[33].appl 	NumberofON 	0
scalar RSUExampleScenario.node[33].appl 	NumberofFN 	0.45945945945946
scalar RSUExampleScenario.node[33].veinsmobility 	startTime 	79.6
scalar RSUExampleScenario.node[33].veinsmobility 	totalTime 	370.4
scalar RSUExampleScenario.node[33].veinsmobility 	stopTime 	450
scalar RSUExampleScenario.node[33].veinsmobility 	minSpeed 	0
scalar RSUExampleScenario.node[33].veinsmobility 	maxSpeed 	13.999252424904
scalar RSUExampleScenario.node[33].veinsmobility 	totalDistance 	1998.2163431443
scalar RSUExampleScenario.node[33].veinsmobility 	totalCO2Emission 	628.88806376142
scalar RSUExampleScenario.node[34].appl 	meanClusterNodes 	0
scalar RSUExampleScenario.node[34].appl 	meanClusterHeadUtility 	0
scalar RSUExampleScenario.node[34].appl 	NumberofCH 	0.51351351351351
scalar RSUExampleScenario.node[34].appl 	NumberofON 	0
scalar RSUExampleScenario.node[34].appl 	NumberofFN 	0.48648648648649
scalar RSUExampleScenario.node[34].veinsmobility 	startTime 	82
scalar RSUExampleScenario.node[34].veinsmobility 	totalTime 	368
scalar RSUExampleScenario.node[34].veinsmobility 	stopTime 	450
scalar RSUExampleScenario.node[34].veinsmobility 	minSpeed 	0
scalar RSUExampleScenario.node[34].veinsmobility 	maxSpeed 	13.999874232623
scalar RSUExampleScenario.node[34].veinsmobility 	totalDistance 	1964.1066811188
scalar RSUExampleScenario.node[34].veinsmobility 	totalCO2Emission 	621.08176721044
scalar RSUExampleScenario.node[35].appl 	meanClusterNodes 	0
scalar RSUExampleScenario.node[35].appl 	meanClusterHeadUtility 	0
scalar RSUExampleScenario.node[35].appl 	NumberofCH 	0.48648648648649
scalar RSUExampleScenario.node[35].appl 	NumberofON 	0
scalar RSUExampleScenario.node[35].appl 	NumberofFN 	0.51351351351351
scalar RSUExampleScenario.node[35].veinsmobility 	startTime 	84.4
scalar RSUExampleScenario.node[35].veinsmobility 	totalTime 	365.6
scalar RSUExampleScenario.node[35].veinsmobility 	stopTime 	450
scalar RSUExampleScenario.node[35].veinsmobility 	minSpeed 	0
scalar RSUExampleScenario.node[35].veinsmobility 	maxSpeed 	13.999993957118
scalar RSUExampleScenario.node[35].veinsmobility 	totalDistance 	1932.7042851199
scalar RSUExampleScenario.node[35].veinsmobility 	totalCO2Emission 	613.66608144619
scalar RSUExampleScenario.node[36].appl 	meanClusterNodes 	0
scalar RSUExampleScenario.node[36].appl 	meanClusterHeadUtility 	0
scalar RSUExampleScenario.node[36].appl 	NumberofCH 	0.48648648648649
scalar RSUExampleScenario.node[36].appl 	NumberofON 	0
scalar RSUExampleScenario.node[36].appl 	NumberofFN 	0.51351351351351
scalar RSUExampleScenario.node[36].veinsmobility 	startTime 	86.8
scalar RSUExampleScenario.node[36].veinsmobility 	totalTime 	363.2
scalar RSUExampleScenario.node[36].veinsmobility 	stopTime 	450
scalar RSUExampleScenario.node[36].veinsmobility 	minSpeed 	0
scalar RSUExampleScenario.node[36].veinsmobility 	maxSpeed 	13.999983572082
scalar RSUExampleScenario.node[36].veinsmobility 	totalDistance 	1898.2359785529
scalar RSUExampleScenario.node[36].veinsmobility 	totalCO2Emission 	611.29711375711
scalar RSUExampleScenario.node[37].appl 	meanClusterNodes 	0
scalar RSUExampleScenario.node[37].appl 	meanClusterHeadUtility 	0
scalar RSUExampleScenario.node[37].appl 	NumberofCH 	0.51351351351351
scalar RSUExampleScenario.node[37].appl 	NumberofON 	0
scalar RSUExampleScenario.node[37].appl 	NumberofFN 	0.48648648648649
scalar RSUExampleScenario.node[37].veinsmobility 	startTime 	89.2
scalar RSUExampleScenario.node[37].veinsmobility 	totalTime 	360.8
scalar RSUExampleScenario.node[37].veinsmobility 	stopTime 	450
scalar RSUExampleScenario.node[37].veinsmobility 	minSpeed 	0
scalar RSUExampleScenario.node[37].veinsmobility 	maxSpeed 	13.999942756675
scalar RSUExampleScenario.node[37].veinsmobility 	totalDistance 	1865.1762313219
scalar RSUExampleScenario.node[37].veinsmobility 	totalCO2Emission 	602.08227480799
scalar RSUExampleScenario.node[38].appl 	meanClusterNodes 	0
scalar RSUExampleScenario.node[38].appl 	meanClusterHeadUtility 	0
scalar RSUExampleScenario.node[38].appl 	NumberofCH 	0.54054054054054
scalar RSUExampleScenario.node[38].appl 	NumberofON 	0
scalar RSUExampleScenario.node[38].appl 	NumberofFN 	0.45945945945946
scalar RSUExampleScenario.node[38].veinsmobility 	startTime 	91.6
scalar RSUExampleScenario.node[38].veinsmobility 	totalTime 	358.4
scalar RSUExampleScenario.node[38].veinsmobility 	stopTime 	450
scalar RSUExampleScenario.node[38].veinsmobility 	minSpeed 	0
scalar RSUExampleScenario.node[38].veinsmobility 	maxSpeed 	13.999663869622
scalar RSUExampleScenario.node[38].veinsmobility 	totalDistance 	1830.2521208301
scalar RSUExampleScenario.node[38].veinsmobility 	totalCO2Emission 	597.93808906565
scalar RSUExampleScenario.node[39].appl 	meanClusterNodes 	0
scalar RSUExampleScenario.node[39].appl 	meanClusterHeadUtility 	0
scalar RSUExampleScenario.node[39].appl 	NumberofCH 	0.48648648648649
scalar RSUExampleScenario.node[39].appl 	NumberofON 	0
scalar RSUExampleScenario.node[39].appl 	NumberofFN 	0.51351351351351
scalar RSUExampleScenario.node[39].veinsmobility 	startTime 	94
scalar RSUExampleScenario.node[39].veinsmobility 	totalTime 	356
scalar RSUExampleScenario.node[39].veinsmobility 	stopTime 	450
scalar RSUExampleScenario.node[39].veinsmobility 	minSpeed 	0
scalar RSUExampleScenario.node[39].veinsmobility 	maxSpeed 	13.999937486746
scalar RSUExampleScenario.node[39].veinsmobility 	totalDistance 	1795.8279524472
scalar RSUExampleScenario.node[39].veinsmobility 	totalCO2Emission 	591.94151737197
scalar RSUExampleScenario.node[4].appl 	meanClusterNodes 	0
scalar RSUExampleScenario.node[4].appl 	meanClusterHeadUtility 	0
scalar RSUExampleScenario.node[4].appl 	NumberofCH 	0.51351351351351
scalar RSUExampleScenario.node[4].appl 	NumberofON 	0
scalar RSUExampleScenario.node[4].appl 	NumberofFN 	0.48648648648649
scalar RSUExampleScenario.node[4].veinsmobility 	startTime 	9.7
scalar RSUExampleScenario.node[4].veinsmobility 	totalTime 	440.3
scalar RSUExampleScenario.node[4].veinsmobility 	stopTime 	450
scalar RSUExampleScenario.node[4].veinsmobility 	minSpeed 	0
scalar RSUExampleScenario.node[4].veinsmobility 	maxSpeed 	13.99984200733
scalar RSUExampleScenario.node[4].veinsmobility 	totalDistance 	2948.1454082831
scalar RSUExampleScenario.node[4].veinsmobility 	totalCO2Emission 	796.26027710991
scalar RSUExampleScenario.node[40].appl 	meanClusterNodes 	0
scalar RSUExampleScenario.node[40].appl 	meanClusterHeadUtility 	0
scalar RSUExampleScenario.node[40].appl 	NumberofCH 	0.48648648648649
scalar RSUExampleScenario.node[40].appl 	NumberofON 	0
scalar RSUExampleScenario.node[40].appl 	NumberofFN 	0.51351351351351
scalar RSUExampleScenario.node[40].veinsmobility 	startTime 	96.5
scalar RSUExampleScenario.node[40].veinsmobility 	totalTime 	353.5
scalar RSUExampleScenario.node[40].veinsmobility 	stopTime 	450
scalar RSUExampleScenario.node[40].veinsmobility 	minSpeed 	0
scalar RSUExampleScenario.node[40].veinsmobility 	maxSpeed 	13.99992408257
scalar RSUExampleScenario.node[40].veinsmobility 	totalDistance 	1762.580595962
scalar RSUExampleScenario.node[40].veinsmobility 	totalCO2Emission 	588.67731257735
scalar RSUExampleScenario.node[41].appl 	meanClusterNodes 	0
scalar RSUExampleScenario.node[41].appl 	meanClusterHeadUtility 	0
scalar RSUExampleScenario.node[41].appl 	NumberofCH 	0.45945945945946
scalar RSUExampleScenario.node[41].appl 	NumberofON 	0
scalar RSUExampleScenario.node[41].appl 	NumberofFN 	0.54054054054054
scalar RSUExampleScenario.node[41].veinsmobility 	startTime 	98.9
scalar RSUExampleScenario.node[41].veinsmobility 	totalTime 	351.1
scalar RSUExampleScenario.node[41].veinsmobility 	stopTime 	450
scalar RSUExampleScenario.node[41].veinsmobility 	minSpeed 	0
scalar RSUExampleScenario.node[41].veinsmobility 	maxSpeed 	13.999639688681
scalar RSUExampleScenario.node[41].veinsmobility 	totalDistance 	1729.501548086
scalar RSUExampleScenario.node[41].veinsmobility 	totalCO2Emission 	579.13036813127
scalar RSUExampleScenario.node[42].appl 	meanClusterNodes 	0
scalar RSUExampleScenario.node[42].appl 	meanClusterHeadUtility 	0
scalar RSUExampleScenario.node[42].appl 	NumberofCH 	0.51351351351351
scalar RSUExampleScenario.node[42].appl 	NumberofON 	0
scalar RSUExampleScenario.node[42].appl 	NumberofFN 	0.48648648648649
scalar RSUExampleScenario.node[42].veinsmobility 	startTime 	101.3
scalar RSUExampleScenario.node[42].veinsmobility 	totalTime 	348.7
scalar RSUExampleScenario.node[42].veinsmobility 	stopTime 	450
scalar RSUExampleScenario.node[42].veinsmobility 	minSpeed 	0
scalar RSUExampleScenario.node[42].veinsmobility 	maxSpeed 	13.999922864526
scalar RSUExampleScenario.node[42].veinsmobility 	totalDistance 	1694.823944968
scalar RSUExampleScenario.node[42].veinsmobility 	totalCO2Emission 	574.66633962818
scalar RSUExampleScenario.node[43].appl 	meanClusterNodes 	0
scalar RSUExampleScenario.node[43].appl 	meanClusterHeadUtility 	0
scalar RSUExampleScenario.node[43].appl 	NumberofCH 	0.51351351351351
scalar RSUExampleScenario.node[43].appl 	NumberofON 	0
scalar RSUExampleScenario.node[43].appl 	NumberofFN 	0.48648648648649
scalar RSUExampleScenario.node[43].veinsmobility 	startTime 	103.7
scalar RSUExampleScenario.node[43].veinsmobility 	totalTime 	346.3
scalar RSUExampleScenario.node[43].veinsmobility 	stopTime 	450
scalar RSUExampleScenario.node[43].veinsmobility 	minSpeed 	0
scalar RSUExampleScenario.node[43].veinsmobility 	maxSpeed 	13.999967804702
scalar RSUExampleScenario.node[43].veinsmobility 	totalDistance 	1663.1493217116
scalar RSUExampleScenario.node[43].veinsmobility 	totalCO2Emission 	570.06116630509
scalar RSUExampleScenario.node[44].appl 	meanClusterNodes 	0
scalar RSUExampleScenario.node[44].appl 	meanClusterHeadUtility 	0
scalar RSUExampleScenario.node[44].appl 	NumberofCH 	0.51351351351351
scalar RSUExampleScenario.node[44].appl 	NumberofON 	0
scalar RSUExampleScenario.node[44].appl 	NumberofFN 	0.48648648648649
scalar RSUExampleScenario.node[44].veinsmobility 	startTime 	106.1
scalar RSUExampleScenario.node[44].veinsmobility 	totalTime 	343.9
scalar RSUExampleScenario.node[44].veinsmobility 	stopTime 	450
scalar RSUExampleScenario.node[44].veinsmobility 	minSpeed 	0
scalar RSUExampleScenario.node[44].veinsmobility 	maxSpeed 	13.999937082729
scalar RSUExampleScenario.node[44].veinsmobility 	totalDistance 	1628.7937728411
scalar RSUExampleScenario.node[44].veinsmobility 	totalCO2Emission 	562.67268731341
scalar RSUExampleScenario.node[45].appl 	meanClusterNodes 	0
scalar RSUExampleScenario.node[45].appl 	meanClusterHeadUtility 	0
scalar RSUExampleScenario.node[45].appl 	NumberofCH 	0.51351351351351
scalar RSUExampleScenario.node[45].appl 	NumberofON 	0
scalar RSUExampleScenario.node[45].appl 	NumberofFN 	0.48648648648649
scalar RSUExampleScenario.node[45].veinsmobility 	startTime 	108.5
scalar RSUExampleScenario.node[45].veinsmobility 	totalTime 	341.5
scalar RSUExampleScenario.node[45].veinsmobility 	stopTime 	450
scalar RSUExampleScenario.node[45].veinsmobility 	minSpeed 	0
scalar RSUExampleScenario.node[45].veinsmobility 	maxSpeed 	13.999810925864
scalar RSUExampleScenario.node[45].veinsmobility 	totalDistance 	1594.6125616436
scalar RSUExampleScenario.node[45].veinsmobility 	totalCO2Emission 	559.21339233904
scalar RSUExampleScenario.node[46].appl 	meanClusterNodes 	0
scalar RSUExampleScenario.node[46].appl 	meanClusterHeadUtility 	0
scalar RSUExampleScenario.node[46].appl 	NumberofCH 	0.51351351351351
scalar RSUExampleScenario.node[46].appl 	NumberofON 	0
scalar RSUExampleScenario.node[46].appl 	NumberofFN 	0.48648648648649
scalar RSUExampleScenario.node[46].veinsmobility 	startTime 	110.9
scalar RSUExampleScenario.node[46].veinsmobility 	totalTime 	339.1
scalar RSUExampleScenario.node[46].veinsmobility 	stopTime 	450
scalar RSUExampleScenario.node[46].veinsmobility 	minSpeed 	0
scalar RSUExampleScenario.node[46].veinsmobility 	maxSpeed 	13.999933435891
scalar RSUExampleScenario.node[46].veinsmobility 	totalDistance 	1561.4917840443
scalar RSUExampleScenario.node[46].veinsmobility 	totalCO2Emission 	554.17808174321
scalar RSUExampleScenario.node[47].appl 	meanClusterNodes 	0
scalar RSUExampleScenario.node[47].appl 	meanClusterHeadUtility 	0
scalar RSUExampleScenario.node[47].appl 	NumberofCH 	0.51351351351351
scalar RSUExampleScenario.node[47].appl 	NumberofON 	0
scalar RSUExampleScenario.node[47].appl 	NumberofFN 	0.48648648648649
scalar RSUExampleScenario.node[47].veinsmobility 	startTime 	113.3
scalar RSUExampleScenario.node[47].veinsmobility 	totalTime 	336.7
scalar RSUExampleScenario.node[47].veinsmobility 	stopTime 	450
scalar RSUExampleScenario.node[47].veinsmobility 	minSpeed 	0
scalar RSUExampleScenario.node[47].veinsmobility 	maxSpeed 	13.99995323536
scalar RSUExampleScenario.node[47].veinsmobility 	totalDistance 	1526.1524010779
scalar RSUExampleScenario.node[47].veinsmobility 	totalCO2Emission 	545.72165070089
scalar RSUExampleScenario.node[48].appl 	meanClusterNodes 	0
scalar RSUExampleScenario.node[48].appl 	meanClusterHeadUtility 	0
scalar RSUExampleScenario.node[48].appl 	NumberofCH 	0.51351351351351
scalar RSUExampleScenario.node[48].appl 	NumberofON 	0
scalar RSUExampleScenario.node[48].appl 	NumberofFN 	0.48648648648649
scalar RSUExampleScenario.node[48].veinsmobility 	startTime 	115.7
scalar RSUExampleScenario.node[48].veinsmobility 	totalTime 	334.3
scalar RSUExampleScenario.node[48].veinsmobility 	stopTime 	450
scalar RSUExampleScenario.node[48].veinsmobility 	minSpeed 	0
scalar RSUExampleScenario.node[48].veinsmobility 	maxSpeed 	13.999983905545
scalar RSUExampleScenario.node[48].veinsmobility 	totalDistance 	1493.3133831476
scalar RSUExampleScenario.node[48].veinsmobility 	totalCO2Emission 	541.13852620399
scalar RSUExampleScenario.node[49].appl 	meanClusterNodes 	0
scalar RSUExampleScenario.node[49].appl 	meanClusterHeadUtility 	0
scalar RSUExampleScenario.node[49].appl 	NumberofCH 	0.51351351351351
scalar RSUExampleScenario.node[49].appl 	NumberofON 	0
scalar RSUExampleScenario.node[49].appl 	NumberofFN 	0.48648648648649
scalar RSUExampleScenario.node[49].veinsmobility 	startTime 	118.1
scalar RSUExampleScenario.node[49].veinsmobility 	totalTime 	331.9
scalar RSUExampleScenario.node[49].veinsmobility 	stopTime 	450
scalar RSUExampleScenario.node[49].veinsmobility 	minSpeed 	0
scalar RSUExampleScenario.node[49].veinsmobility 	maxSpeed 	13.999711664221
scalar RSUExampleScenario.node[49].veinsmobility 	totalDistance 	1459.4485912779
scalar RSUExampleScenario.node[49].veinsmobility 	totalCO2Emission 	537.06457309912
scalar RSUExampleScenario.node[5].appl 	meanClusterNodes 	0
scalar RSUExampleScenario.node[5].appl 	meanClusterHeadUtility 	0
scalar RSUExampleScenario.node[5].appl 	NumberofCH 	0.51351351351351
scalar RSUExampleScenario.node[5].appl 	NumberofON 	0
scalar RSUExampleScenario.node[5].appl 	NumberofFN 	0.48648648648649
scalar RSUExampleScenario.node[5].veinsmobility 	startTime 	12.1
scalar RSUExampleScenario.node[5].veinsmobility 	totalTime 	437.9
scalar RSUExampleScenario.node[5].veinsmobility 	stopTime 	450
scalar RSUExampleScenario.node[5].veinsmobility 	minSpeed 	0
scalar RSUExampleScenario.node[5].veinsmobility 	maxSpeed 	13.999923424998
scalar RSUExampleScenario.node[5].veinsmobility 	totalDistance 	2913.2236229767
scalar RSUExampleScenario.node[5].veinsmobility 	totalCO2Emission 	781.29103814757
scalar RSUExampleScenario.node[50].appl 	meanClusterNodes 	0
scalar RSUExampleScenario.node[50].appl 	meanClusterHeadUtility 	0
scalar RSUExampleScenario.node[50].appl 	NumberofCH 	0.45945945945946
scalar RSUExampleScenario.node[50].appl 	NumberofON 	0
scalar RSUExampleScenario.node[50].appl 	NumberofFN 	0.54054054054054
scalar RSUExampleScenario.node[50].veinsmobility 	startTime 	120.6
scalar RSUExampleScenario.node[50].veinsmobility 	totalTime 	329.4
scalar RSUExampleScenario.node[50].veinsmobility 	stopTime 	450
scalar RSUExampleScenario.node[50].veinsmobility 	minSpeed 	0
scalar RSUExampleScenario.node[50].veinsmobility 	maxSpeed 	13.999979123233
scalar RSUExampleScenario.node[50].veinsmobility 	totalDistance 	1426.5319541524
scalar RSUExampleScenario.node[50].veinsmobility 	totalCO2Emission 	529.35788905352
scalar RSUExampleScenario.node[51].appl 	meanClusterNodes 	0
scalar RSUExampleScenario.node[51].appl 	meanClusterHeadUtility 	0
scalar RSUExampleScenario.node[51].appl 	NumberofCH 	0.48648648648649
scalar RSUExampleScenario.node[51].appl 	NumberofON 	0
scalar RSUExampleScenario.node[51].appl 	NumberofFN 	0.51351351351351
scalar RSUExampleScenario.node[51].veinsmobility 	startTime 	123
scalar RSUExampleScenario.node[51].veinsmobility 	totalTime 	327
scalar RSUExampleScenario.node[51].veinsmobility 	stopTime 	450
scalar RSUExampleScenario.node[51].veinsmobility 	minSpeed 	0
scalar RSUExampleScenario.node[51].veinsmobility 	maxSpeed 	13.999973320619
scalar RSUExampleScenario.node[51].veinsmobility 	totalDistance 	1392.5969938369
scalar RSUExampleScenario.node[51].veinsmobility 	totalCO2Emission 	523.78183136204
scalar RSUExampleScenario.node[52].appl 	meanClusterNodes 	0
scalar RSUExampleScenario.node[52].appl 	meanClusterHeadUtility 	0
scalar RSUExampleScenario.node[52].appl 	NumberofCH 	0.48648648648649
scalar RSUExampleScenario.node[52].appl 	NumberofON 	0
scalar RSUExampleScenario.node[52].appl 	NumberofFN 	0.51351351351351
scalar RSUExampleScenario.node[52].veinsmobility 	startTime 	125.4
scalar RSUExampleScenario.node[52].veinsmobility 	totalTime 	324.6
scalar RSUExampleScenario.node[52].veinsmobility 	stopTime 	450
scalar RSUExampleScenario.node[52].veinsmobility 	minSpeed 	0
scalar RSUExampleScenario.node[52].veinsmobility 	maxSpeed 	13.999762072279
scalar RSUExampleScenario.node[52].veinsmobility 	totalDistance 	1359.1455274741
scalar RSUExampleScenario.node[52].veinsmobility 	totalCO2Emission 	519.72423881811
scalar RSUExampleScenario.node[53].appl 	meanClusterNodes 	0
scalar RSUExampleScenario.node[53].appl 	meanClusterHeadUtility 	0
scalar RSUExampleScenario.node[53].appl 	NumberofCH 	0.54054054054054
scalar RSUExampleScenario.node[53].appl 	NumberofON 	0
scalar RSUExampleScenario.node[53].appl 	NumberofFN 	0.45945945945946
scalar RSUExampleScenario.node[53].veinsmobility 	startTime 	127.8
scalar RSUExampleScenario.node[53].veinsmobility 	totalTime 	322.2
scalar RSUExampleScenario.node[53].veinsmobility 	stopTime 	450
scalar RSUExampleScenario.node[53].veinsmobility 	minSpeed 	0
scalar RSUExampleScenario.node[53].veinsmobility 	maxSpeed 	13.999831281719
scalar RSUExampleScenario.node[53].veinsmobility 	totalDistance 	1325.7536410485
scalar RSUExampleScenario.node[53].veinsmobility 	totalCO2Emission 	513.15259282589
scalar RSUExampleScenario.node[54].appl 	meanClusterNodes 	0
scalar RSUExampleScenario.node[54].appl 	meanClusterHeadUtility 	0
scalar RSUExampleScenario.node[54].appl 	NumberofCH 	0.45945945945946
scalar RSUExampleScenario.node[54].appl 	NumberofON 	0
scalar RSUExampleScenario.node[54].appl 	NumberofFN 	0.54054054054054
scalar RSUExampleScenario.node[54].veinsmobility 	startTime 	130.2
scalar RSUExampleScenario.node[54].veinsmobility 	totalTime 	319.8
scalar RSUExampleScenario.node[54].veinsmobility 	stopTime 	450
scalar RSUExampleScenario.node[54].veinsmobility 	minSpeed 	0
scalar RSUExampleScenario.node[54].veinsmobility 	maxSpeed 	13.999916594846
scalar RSUExampleScenario.node[54].veinsmobility 	totalDistance 	1292.8009040563
scalar RSUExampleScenario.node[54].veinsmobility 	totalCO2Emission 	506.51792913364
scalar RSUExampleScenario.node[55].appl 	meanClusterNodes 	0
scalar RSUExampleScenario.node[55].appl 	meanClusterHeadUtility 	0
scalar RSUExampleScenario.node[55].appl 	NumberofCH 	0.54054054054054
scalar RSUExampleScenario.node[55].appl 	NumberofON 	0
scalar RSUExampleScenario.node[55].appl 	NumberofFN 	0.45945945945946
scalar RSUExampleScenario.node[55].veinsmobility 	startTime 	132.6
scalar RSUExampleScenario.node[55].veinsmobility 	totalTime 	317.4
scalar RSUExampleScenario.node[55].veinsmobility 	stopTime 	450
scalar RSUExampleScenario.node[55].veinsmobility 	minSpeed 	0
scalar RSUExampleScenario.node[55].veinsmobility 	maxSpeed 	13.999426404608
scalar RSUExampleScenario.node[55].veinsmobility 	totalDistance 	1258.1689004152
scalar RSUExampleScenario.node[55].veinsmobility 	totalCO2Emission 	503.19468990697
scalar RSUExampleScenario.node[56].appl 	meanClusterNodes 	0
scalar RSUExampleScenario.node[56].appl 	meanClusterHeadUtility 	0
scalar RSUExampleScenario.node[56].appl 	NumberofCH 	0.51351351351351
scalar RSUExampleScenario.node[56].appl 	NumberofON 	0
scalar RSUExampleScenario.node[56].appl 	NumberofFN 	0.48648648648649
scalar RSUExampleScenario.node[56].veinsmobility 	startTime 	135
scalar RSUExampleScenario.node[56].veinsmobility 	totalTime 	315
scalar RSUExampleScenario.node[56].veinsmobility 	stopTime 	450
scalar RSUExampleScenario.node[56].veinsmobility 	minSpeed 	0
scalar RSUExampleScenario.node[56].veinsmobility 	maxSpeed 	13.999967255248
scalar RSUExampleScenario.node[56].veinsmobility 	totalDistance 	1225.63388239
scalar RSUExampleScenario.node[56].veinsmobility 	totalCO2Emission 	496.93486966151
scalar RSUExampleScenario.node[57].appl 	meanClusterNodes 	0
scalar RSUExampleScenario.node[57].appl 	meanClusterHeadUtility 	0
scalar RSUExampleScenario.node[57].appl 	NumberofCH 	0.48648648648649
scalar RSUExampleScenario.node[57].appl 	NumberofON 	0
scalar RSUExampleScenario.node[57].appl 	NumberofFN 	0.51351351351351
scalar RSUExampleScenario.node[57].veinsmobility 	startTime 	137.4
scalar RSUExampleScenario.node[57].veinsmobility 	totalTime 	312.6
scalar RSUExampleScenario.node[57].veinsmobility 	stopTime 	450
scalar RSUExampleScenario.node[57].veinsmobility 	minSpeed 	0
scalar RSUExampleScenario.node[57].veinsmobility 	maxSpeed 	13.9999235303
scalar RSUExampleScenario.node[57].veinsmobility 	totalDistance 	1192.9725949346
scalar RSUExampleScenario.node[57].veinsmobility 	totalCO2Emission 	491.09214295714
scalar RSUExampleScenario.node[58].appl 	meanClusterNodes 	0
scalar RSUExampleScenario.node[58].appl 	meanClusterHeadUtility 	0
scalar RSUExampleScenario.node[58].appl 	NumberofCH 	0.48648648648649
scalar RSUExampleScenario.node[58].appl 	NumberofON 	0
scalar RSUExampleScenario.node[58].appl 	NumberofFN 	0.51351351351351
scalar RSUExampleScenario.node[58].veinsmobility 	startTime 	139.8
scalar RSUExampleScenario.node[58].veinsmobility 	totalTime 	310.2
scalar RSUExampleScenario.node[58].veinsmobility 	stopTime 	450
scalar RSUExampleScenario.node[58].veinsmobility 	minSpeed 	0
scalar RSUExampleScenario.node[58].veinsmobility 	maxSpeed 	13.999979502915
scalar RSUExampleScenario.node[58].veinsmobility 	totalDistance 	1159.5354284139
scalar RSUExampleScenario.node[58].veinsmobility 	totalCO2Emission 	485.92773327491
scalar RSUExampleScenario.node[59].appl 	meanClusterNodes 	0
scalar RSUExampleScenario.node[59].appl 	meanClusterHeadUtility 	0
scalar RSUExampleScenario.node[59].appl 	NumberofCH 	0.48648648648649
scalar RSUExampleScenario.node[59].appl 	NumberofON 	0
scalar RSUExampleScenario.node[59].appl 	NumberofFN 	0.51351351351351
scalar RSUExampleScenario.node[59].veinsmobility 	startTime 	142.2
scalar RSUExampleScenario.node[59].veinsmobility 	totalTime 	307.8
scalar RSUExampleScenario.node[59].veinsmobility 	stopTime 	450
scalar RSUExampleScenario.node[59].veinsmobility 	minSpeed 	0
scalar RSUExampleScenario.node[59].veinsmobility 	maxSpeed 	13.99999182716
scalar RSUExampleScenario.node[59].veinsmobility 	totalDistance 	1125.4170715924
scalar RSUExampleScenario.node[59].veinsmobility 	totalCO2Emission 	481.36550377801
scalar RSUExampleScenario.node[6].appl 	meanClusterNodes 	0
scalar RSUExampleScenario.node[6].appl 	meanClusterHeadUtility 	0
scalar RSUExampleScenario.node[6].appl 	NumberofCH 	0.48648648648649
scalar RSUExampleScenario.node[6].appl 	NumberofON 	0
scalar RSUExampleScenario.node[6].appl 	NumberofFN 	0.51351351351351
scalar RSUExampleScenario.node[6].veinsmobility 	startTime 	14.5
scalar RSUExampleScenario.node[6].veinsmobility 	totalTime 	435.5
scalar RSUExampleScenario.node[6].veinsmobility 	stopTime 	450
scalar RSUExampleScenario.node[6].veinsmobility 	minSpeed 	0
scalar RSUExampleScenario.node[6].veinsmobility 	maxSpeed 	13.999972495786
scalar RSUExampleScenario.node[6].veinsmobility 	totalDistance 	2904.8550396074
scalar RSUExampleScenario.node[6].veinsmobility 	totalCO2Emission 	776.31006833916
scalar RSUExampleScenario.node[60].appl 	meanClusterNodes 	0
scalar RSUExampleScenario.node[60].appl 	meanClusterHeadUtility 	0
scalar RSUExampleScenario.node[60].appl 	NumberofCH 	0.48648648648649
scalar RSUExampleScenario.node[60].appl 	NumberofON 	0
scalar RSUExampleScenario.node[60].appl 	NumberofFN 	0.51351351351351
scalar RSUExampleScenario.node[60].veinsmobility 	startTime 	144.7
scalar RSUExampleScenario.node[60].veinsmobility 	totalTime 	305.3
scalar RSUExampleScenario.node[60].veinsmobility 	stopTime 	450
scalar RSUExampleScenario.node[60].veinsmobility 	minSpeed 	0
scalar RSUExampleScenario.node[60].veinsmobility 	maxSpeed 	13.999899386044
scalar RSUExampleScenario.node[60].veinsmobility 	totalDistance 	1090.4389420094
scalar RSUExampleScenario.node[60].veinsmobility 	totalCO2Emission 	473.20600352025
scalar RSUExampleScenario.node[61].appl 	meanClusterNodes 	0
scalar RSUExampleScenario.node[61].appl 	meanClusterHeadUtility 	0
scalar RSUExampleScenario.node[61].appl 	NumberofCH 	0.48648648648649
scalar RSUExampleScenario.node[61].appl 	NumberofON 	0
scalar RSUExampleScenario.node[61].appl 	NumberofFN 	0.51351351351351
scalar RSUExampleScenario.node[61].veinsmobility 	startTime 	147.1
scalar RSUExampleScenario.node[61].veinsmobility 	totalTime 	302.9
scalar RSUExampleScenario.node[61].veinsmobility 	stopTime 	450
scalar RSUExampleScenario.node[61].veinsmobility 	minSpeed 	0
scalar RSUExampleScenario.node[61].veinsmobility 	maxSpeed 	13.999789113454
scalar RSUExampleScenario.node[61].veinsmobility 	totalDistance 	1058.0225986744
scalar RSUExampleScenario.node[61].veinsmobility 	totalCO2Emission 	468.83224312548
scalar RSUExampleScenario.node[62].appl 	meanClusterNodes 	0
scalar RSUExampleScenario.node[62].appl 	meanClusterHeadUtility 	0
scalar RSUExampleScenario.node[62].appl 	NumberofCH 	0.45945945945946
scalar RSUExampleScenario.node[62].appl 	NumberofON 	0
scalar RSUExampleScenario.node[62].appl 	NumberofFN 	0.54054054054054
scalar RSUExampleScenario.node[62].veinsmobility 	startTime 	149.5
scalar RSUExampleScenario.node[62].veinsmobility 	totalTime 	300.5
scalar RSUExampleScenario.node[62].veinsmobility 	stopTime 	450
scalar RSUExampleScenario.node[62].veinsmobility 	minSpeed 	0
scalar RSUExampleScenario.node[62].veinsmobility 	maxSpeed 	13.999132840307
scalar RSUExampleScenario.node[62].veinsmobility 	totalDistance 	1023.5885785967
scalar RSUExampleScenario.node[62].veinsmobility 	totalCO2Emission 	462.69636212063
scalar RSUExampleScenario.node[63].appl 	meanClusterNodes 	0
scalar RSUExampleScenario.node[63].appl 	meanClusterHeadUtility 	0
scalar RSUExampleScenario.node[63].appl 	NumberofCH 	0.48648648648649
scalar RSUExampleScenario.node[63].appl 	NumberofON 	0
scalar RSUExampleScenario.node[63].appl 	NumberofFN 	0.51351351351351
scalar RSUExampleScenario.node[63].veinsmobility 	startTime 	151.9
scalar RSUExampleScenario.node[63].veinsmobility 	totalTime 	298.1
scalar RSUExampleScenario.node[63].veinsmobility 	stopTime 	450
scalar RSUExampleScenario.node[63].veinsmobility 	minSpeed 	0
scalar RSUExampleScenario.node[63].veinsmobility 	maxSpeed 	13.999981332282
scalar RSUExampleScenario.node[63].veinsmobility 	totalDistance 	984.06648990207
scalar RSUExampleScenario.node[63].veinsmobility 	totalCO2Emission 	449.38448408004
scalar RSUExampleScenario.node[64].appl 	meanClusterNodes 	0
scalar RSUExampleScenario.node[64].appl 	meanClusterHeadUtility 	0
scalar RSUExampleScenario.node[64].appl 	NumberofCH 	0.51351351351351
scalar RSUExampleScenario.node[64].appl 	NumberofON 	0
scalar RSUExampleScenario.node[64].appl 	NumberofFN 	0.48648648648649
scalar RSUExampleScenario.node[64].veinsmobility 	startTime 	154.3
scalar RSUExampleScenario.node[64].veinsmobility 	totalTime 	295.7
scalar RSUExampleScenario.node[64].veinsmobility 	stopTime 	450
scalar RSUExampleScenario.node[64].veinsmobility 	minSpeed 	0
scalar RSUExampleScenario.node[64].veinsmobility 	maxSpeed 	13.999634029083
scalar RSUExampleScenario.node[64].veinsmobility 	totalDistance 	953.50024870892
scalar RSUExampleScenario.node[64].veinsmobility 	totalCO2Emission 	435.74908367187
scalar RSUExampleScenario.node[65].appl 	meanClusterNodes 	0
scalar RSUExampleScenario.node[65].appl 	meanClusterHeadUtility 	0
scalar RSUExampleScenario.node[65].appl 	NumberofCH 	0.54054054054054
scalar RSUExampleScenario.node[65].appl 	NumberofON 	0
scalar RSUExampleScenario.node[65].appl 	NumberofFN 	0.45945945945946
scalar RSUExampleScenario.node[65].veinsmobility 	startTime 	156.7
scalar RSUExampleScenario.node[65].veinsmobility 	totalTime 	293.3
scalar RSUExampleScenario.node[65].veinsmobility 	stopTime 	450
scalar RSUExampleScenario.node[65].veinsmobility 	minSpeed 	0
scalar RSUExampleScenario.node[65].veinsmobility 	maxSpeed 	13.99957795619
scalar RSUExampleScenario.node[65].veinsmobility 	totalDistance 	940.44045299465
scalar RSUExampleScenario.node[65].veinsmobility 	totalCO2Emission 	428.38666253543
scalar RSUExampleScenario.node[66].appl 	meanClusterNodes 	0
scalar RSUExampleScenario.node[66].appl 	meanClusterHeadUtility 	0
scalar RSUExampleScenario.node[66].appl 	NumberofCH 	0.48648648648649
scalar RSUExampleScenario.node[66].appl 	NumberofON 	0
scalar RSUExampleScenario.node[66].appl 	NumberofFN 	0.51351351351351
scalar RSUExampleScenario.node[66].veinsmobility 	startTime 	159.1
scalar RSUExampleScenario.node[66].veinsmobility 	totalTime 	290.9
scalar RSUExampleScenario.node[66].veinsmobility 	stopTime 	450
scalar RSUExampleScenario.node[66].veinsmobility 	minSpeed 	0
scalar RSUExampleScenario.node[66].veinsmobility 	maxSpeed 	13.99951846017
scalar RSUExampleScenario.node[66].veinsmobility 	totalDistance 	927.9494221976
scalar RSUExampleScenario.node[66].veinsmobility 	totalCO2Emission 	423.8856165758
scalar RSUExampleScenario.node[67].appl 	meanClusterNodes 	0
scalar RSUExampleScenario.node[67].appl 	meanClusterHeadUtility 	0
scalar RSUExampleScenario.node[67].appl 	NumberofCH 	0.54054054054054
scalar RSUExampleScenario.node[67].appl 	NumberofON 	0
scalar RSUExampleScenario.node[67].appl 	NumberofFN 	0.45945945945946
scalar RSUExampleScenario.node[67].veinsmobility 	startTime 	161.5
scalar RSUExampleScenario.node[67].veinsmobility 	totalTime 	288.5
scalar RSUExampleScenario.node[67].veinsmobility 	stopTime 	450
scalar RSUExampleScenario.node[67].veinsmobility 	minSpeed 	0
scalar RSUExampleScenario.node[67].veinsmobility 	maxSpeed 	13.999888068754
scalar RSUExampleScenario.node[67].veinsmobility 	totalDistance 	912.27392208544
scalar RSUExampleScenario.node[67].veinsmobility 	totalCO2Emission 	422.14646797593
scalar RSUExampleScenario.node[68].appl 	meanClusterNodes 	0
scalar RSUExampleScenario.node[68].appl 	meanClusterHeadUtility 	0
scalar RSUExampleScenario.node[68].appl 	NumberofCH 	0.51351351351351
scalar RSUExampleScenario.node[68].appl 	NumberofON 	0
scalar RSUExampleScenario.node[68].appl 	NumberofFN 	0.48648648648649
scalar RSUExampleScenario.node[68].veinsmobility 	startTime 	163.9
scalar RSUExampleScenario.node[68].veinsmobility 	totalTime 	286.1
scalar RSUExampleScenario.node[68].veinsmobility 	stopTime 	450
scalar RSUExampleScenario.node[68].veinsmobility 	minSpeed 	0
scalar RSUExampleScenario.node[68].veinsmobility 	maxSpeed 	13.999991038286
scalar RSUExampleScenario.node[68].veinsmobility 	totalDistance 	891.82667682398
scalar RSUExampleScenario.node[68].veinsmobility 	totalCO2Emission 	418.7565419118
scalar RSUExampleScenario.node[69].appl 	meanClusterNodes 	0
scalar RSUExampleScenario.node[69].appl 	meanClusterHeadUtility 	0
scalar RSUExampleScenario.node[69].appl 	NumberofCH 	0.48648648648649
scalar RSUExampleScenario.node[69].appl 	NumberofON 	0
scalar RSUExampleScenario.node[69].appl 	NumberofFN 	0.51351351351351
scalar RSUExampleScenario.node[69].veinsmobility 	startTime 	166.3
scalar RSUExampleScenario.node[69].veinsmobility 	totalTime 	283.7
scalar RSUExampleScenario.node[69].veinsmobility 	stopTime 	450
scalar RSUExampleScenario.node[69].veinsmobility 	minSpeed 	0
scalar RSUExampleScenario.node[69].veinsmobility 	maxSpeed 	13.999777373017
scalar RSUExampleScenario.node[69].veinsmobility 	totalDistance 	857.67644751338
scalar RSUExampleScenario.node[69].veinsmobility 	totalCO2Emission 	412.76236622933
scalar RSUExampleScenario.node[7].appl 	meanClusterNodes 	0
scalar RSUExampleScenario.node[7].appl 	meanClusterHeadUtility 	0
scalar RSUExampleScenario.node[7].appl 	NumberofCH 	0.51351351351351
scalar RSUExampleScenario.node[7].appl 	NumberofON 	0
scalar RSUExampleScenario.node[7].appl 	NumberofFN 	0.48648648648649
scalar RSUExampleScenario.node[7].veinsmobility 	startTime 	16.9
scalar RSUExampleScenario.node[7].veinsmobility 	totalTime 	433.1
scalar RSUExampleScenario.node[7].veinsmobility 	stopTime 	450
scalar RSUExampleScenario.node[7].veinsmobility 	minSpeed 	0
scalar RSUExampleScenario.node[7].veinsmobility 	maxSpeed 	13.999887285479
scalar RSUExampleScenario.node[7].veinsmobility 	totalDistance 	2884.3092580661
scalar RSUExampleScenario.node[7].veinsmobility 	totalCO2Emission 	776.74537089985
scalar RSUExampleScenario.node[70].appl 	meanClusterNodes 	0
scalar RSUExampleScenario.node[70].appl 	meanClusterHeadUtility 	0
scalar RSUExampleScenario.node[70].appl 	NumberofCH 	0.45945945945946
scalar RSUExampleScenario.node[70].appl 	NumberofON 	0
scalar RSUExampleScenario.node[70].appl 	NumberofFN 	0.54054054054054
scalar RSUExampleScenario.node[70].veinsmobility 	startTime 	168.8
scalar RSUExampleScenario.node[70].veinsmobility 	totalTime 	281.2
scalar RSUExampleScenario.node[70].veinsmobility 	stopTime 	450
scalar RSUExampleScenario.node[70].veinsmobility 	minSpeed 	0
scalar RSUExampleScenario.node[70].veinsmobility 	maxSpeed 	13.99995026377
scalar RSUExampleScenario.node[70].veinsmobility 	totalDistance 	824.35860198046
scalar RSUExampleScenario.node[70].veinsmobility 	totalCO2Emission 	406.66517047802
scalar RSUExampleScenario.node[71].appl 	meanClusterNodes 	0
scalar RSUExampleScenario.node[71].appl 	meanClusterHeadUtility 	0
scalar RSUExampleScenario.node[71].appl 	NumberofCH 	0.51351351351351
scalar RSUExampleScenario.node[71].appl 	NumberofON 	0
scalar RSUExampleScenario.node[71].appl 	NumberofFN 	0.48648648648649
scalar RSUExampleScenario.node[71].veinsmobility 	startTime 	171.2
scalar RSUExampleScenario.node[71].veinsmobility 	totalTime 	278.8
scalar RSUExampleScenario.node[71].veinsmobility 	stopTime 	450
scalar RSUExampleScenario.node[71].veinsmobility 	minSpeed 	0
scalar RSUExampleScenario.node[71].veinsmobility 	maxSpeed 	13.999813073014
scalar RSUExampleScenario.node[71].veinsmobility 	totalDistance 	791.37841997761
scalar RSUExampleScenario.node[71].veinsmobility 	totalCO2Emission 	401.50891981568
scalar RSUExampleScenario.node[72].appl 	meanClusterNodes 	0
scalar RSUExampleScenario.node[72].appl 	meanClusterHeadUtility 	0
scalar RSUExampleScenario.node[72].appl 	NumberofCH 	0.51351351351351
scalar RSUExampleScenario.node[72].appl 	NumberofON 	0
scalar RSUExampleScenario.node[72].appl 	NumberofFN 	0.48648648648649
scalar RSUExampleScenario.node[72].veinsmobility 	startTime 	173.6
scalar RSUExampleScenario.node[72].veinsmobility 	totalTime 	276.4
scalar RSUExampleScenario.node[72].veinsmobility 	stopTime 	450
scalar RSUExampleScenario.node[72].veinsmobility 	minSpeed 	0
scalar RSUExampleScenario.node[72].veinsmobility 	maxSpeed 	13.999772825132
scalar RSUExampleScenario.node[72].veinsmobility 	totalDistance 	758.27434041342
scalar RSUExampleScenario.node[72].veinsmobility 	totalCO2Emission 	396.2700770959
scalar RSUExampleScenario.node[73].appl 	meanClusterNodes 	0
scalar RSUExampleScenario.node[73].appl 	meanClusterHeadUtility 	0
scalar RSUExampleScenario.node[73].appl 	NumberofCH 	0.51351351351351
scalar RSUExampleScenario.node[73].appl 	NumberofON 	0
scalar RSUExampleScenario.node[73].appl 	NumberofFN 	0.48648648648649
scalar RSUExampleScenario.node[73].veinsmobility 	startTime 	176
scalar RSUExampleScenario.node[73].veinsmobility 	totalTime 	274
scalar RSUExampleScenario.node[73].veinsmobility 	stopTime 	450
scalar RSUExampleScenario.node[73].veinsmobility 	minSpeed 	0
scalar RSUExampleScenario.node[73].veinsmobility 	maxSpeed 	13.999427319851
scalar RSUExampleScenario.node[73].veinsmobility 	totalDistance 	725.47691344354
scalar RSUExampleScenario.node[73].veinsmobility 	totalCO2Emission 	390.81798765532
scalar RSUExampleScenario.node[74].appl 	meanClusterNodes 	0
scalar RSUExampleScenario.node[74].appl 	meanClusterHeadUtility 	0
scalar RSUExampleScenario.node[74].appl 	NumberofCH 	0.51351351351351
scalar RSUExampleScenario.node[74].appl 	NumberofON 	0
scalar RSUExampleScenario.node[74].appl 	NumberofFN 	0.48648648648649
scalar RSUExampleScenario.node[74].veinsmobility 	startTime 	178.4
scalar RSUExampleScenario.node[74].veinsmobility 	totalTime 	271.6
scalar RSUExampleScenario.node[74].veinsmobility 	stopTime 	450
scalar RSUExampleScenario.node[74].veinsmobility 	minSpeed 	0
scalar RSUExampleScenario.node[74].veinsmobility 	maxSpeed 	13.999250904936
scalar RSUExampleScenario.node[74].veinsmobility 	totalDistance 	690.91387950911
scalar RSUExampleScenario.node[74].veinsmobility 	totalCO2Emission 	384.57551656274
scalar RSUExampleScenario.node[75].appl 	meanClusterNodes 	0
scalar RSUExampleScenario.node[75].appl 	meanClusterHeadUtility 	0
scalar RSUExampleScenario.node[75].appl 	NumberofCH 	0.51351351351351
scalar RSUExampleScenario.node[75].appl 	NumberofON 	0
scalar RSUExampleScenario.node[75].appl 	NumberofFN 	0.48648648648649
scalar RSUExampleScenario.node[75].veinsmobility 	startTime 	180.8
scalar RSUExampleScenario.node[75].veinsmobility 	totalTime 	269.2
scalar RSUExampleScenario.node[75].veinsmobility 	stopTime 	450
scalar RSUExampleScenario.node[75].veinsmobility 	minSpeed 	0
scalar RSUExampleScenario.node[75].veinsmobility 	maxSpeed 	13.999191500477
scalar RSUExampleScenario.node[75].veinsmobility 	totalDistance 	657.30998342546
scalar RSUExampleScenario.node[75].veinsmobility 	totalCO2Emission 	379.23037630826
scalar RSUExampleScenario.node[76].appl 	meanClusterNodes 	0
scalar RSUExampleScenario.node[76].appl 	meanClusterHeadUtility 	0
scalar RSUExampleScenario.node[76].appl 	NumberofCH 	0.48648648648649
scalar RSUExampleScenario.node[76].appl 	NumberofON 	0
scalar RSUExampleScenario.node[76].appl 	NumberofFN 	0.51351351351351
scalar RSUExampleScenario.node[76].veinsmobility 	startTime 	183.2
scalar RSUExampleScenario.node[76].veinsmobility 	totalTime 	266.8
scalar RSUExampleScenario.node[76].veinsmobility 	stopTime 	450
scalar RSUExampleScenario.node[76].veinsmobility 	minSpeed 	0
scalar RSUExampleScenario.node[76].veinsmobility 	maxSpeed 	13.999380473003
scalar RSUExampleScenario.node[76].veinsmobility 	totalDistance 	625.80021736238
scalar RSUExampleScenario.node[76].veinsmobility 	totalCO2Emission 	372.48708439263
scalar RSUExampleScenario.node[77].appl 	meanClusterNodes 	0
scalar RSUExampleScenario.node[77].appl 	meanClusterHeadUtility 	0
scalar RSUExampleScenario.node[77].appl 	NumberofCH 	0.51351351351351
scalar RSUExampleScenario.node[77].appl 	NumberofON 	0
scalar RSUExampleScenario.node[77].appl 	NumberofFN 	0.48648648648649
scalar RSUExampleScenario.node[77].veinsmobility 	startTime 	185.6
scalar RSUExampleScenario.node[77].veinsmobility 	totalTime 	264.4
scalar RSUExampleScenario.node[77].veinsmobility 	stopTime 	450
scalar RSUExampleScenario.node[77].veinsmobility 	minSpeed 	0
scalar RSUExampleScenario.node[77].veinsmobility 	maxSpeed 	13.999717486934
scalar RSUExampleScenario.node[77].veinsmobility 	totalDistance 	589.7305937455
scalar RSUExampleScenario.node[77].veinsmobility 	totalCO2Emission 	367.14204542322
scalar RSUExampleScenario.node[78].appl 	meanClusterNodes 	0
scalar RSUExampleScenario.node[78].appl 	meanClusterHeadUtility 	0
scalar RSUExampleScenario.node[78].appl 	NumberofCH 	0.48648648648649
scalar RSUExampleScenario.node[78].appl 	NumberofON 	0
scalar RSUExampleScenario.node[78].appl 	NumberofFN 	0.51351351351351
scalar RSUExampleScenario.node[78].veinsmobility 	startTime 	188
scalar RSUExampleScenario.node[78].veinsmobility 	totalTime 	262
scalar RSUExampleScenario.node[78].veinsmobility 	stopTime 	450
scalar RSUExampleScenario.node[78].veinsmobility 	minSpeed 	0
scalar RSUExampleScenario.node[78].veinsmobility 	maxSpeed 	13.999300758273
scalar RSUExampleScenario.node[78].veinsmobility 	totalDistance 	557.53562035091
scalar RSUExampleScenario.node[78].veinsmobility 	totalCO2Emission 	361.38666740031
scalar RSUExampleScenario.node[79].appl 	meanClusterNodes 	0
scalar RSUExampleScenario.node[79].appl 	meanClusterHeadUtility 	0
scalar RSUExampleScenario.node[79].appl 	NumberofCH 	0.51351351351351
scalar RSUExampleScenario.node[79].appl 	NumberofON 	0
scalar RSUExampleScenario.node[79].appl 	NumberofFN 	0.48648648648649
scalar RSUExampleScenario.node[79].veinsmobility 	startTime 	190.4
scalar RSUExampleScenario.node[79].veinsmobility 	totalTime 	259.6
scalar RSUExampleScenario.node[79].veinsmobility 	stopTime 	450
scalar RSUExampleScenario.node[79].veinsmobility 	minSpeed 	0
scalar RSUExampleScenario.node[79].veinsmobility 	maxSpeed 	13.999733354198
scalar RSUExampleScenario.node[79].veinsmobility 	totalDistance 	523.06038327003
scalar RSUExampleScenario.node[79].veinsmobility 	totalCO2Emission 	356.67874716046
scalar RSUExampleScenario.node[8].appl 	meanClusterNodes 	0
scalar RSUExampleScenario.node[8].appl 	meanClusterHeadUtility 	0
scalar RSUExampleScenario.node[8].appl 	NumberofCH 	0.45945945945946
scalar RSUExampleScenario.node[8].appl 	NumberofON 	0
scalar RSUExampleScenario.node[8].appl 	NumberofFN 	0.54054054054054
scalar RSUExampleScenario.node[8].veinsmobility 	startTime 	19.3
scalar RSUExampleScenario.node[8].veinsmobility 	totalTime 	430.7
scalar RSUExampleScenario.node[8].veinsmobility 	stopTime 	450
scalar RSUExampleScenario.node[8].veinsmobility 	minSpeed 	0
scalar RSUExampleScenario.node[8].veinsmobility 	maxSpeed 	13.999976386826
scalar RSUExampleScenario.node[8].veinsmobility 	totalDistance 	2860.4642887333
scalar RSUExampleScenario.node[8].veinsmobility 	totalCO2Emission 	767.52901054845
scalar RSUExampleScenario.node[80].appl 	meanClusterNodes 	0
scalar RSUExampleScenario.node[80].appl 	meanClusterHeadUtility 	0
scalar RSUExampleScenario.node[80].appl 	NumberofCH 	0.45945945945946
scalar RSUExampleScenario.node[80].appl 	NumberofON 	0
scalar RSUExampleScenario.node[80].appl 	NumberofFN 	0.54054054054054
scalar RSUExampleScenario.node[80].veinsmobility 	startTime 	192.9
scalar RSUExampleScenario.node[80].veinsmobility 	totalTime 	257.1
scalar RSUExampleScenario.node[80].veinsmobility 	stopTime 	450
scalar RSUExampleScenario.node[80].veinsmobility 	minSpeed 	0
scalar RSUExampleScenario.node[80].veinsmobility 	maxSpeed 	13.99934268055
scalar RSUExampleScenario.node[80].veinsmobility 	totalDistance 	489.94719072413
scalar RSUExampleScenario.node[80].veinsmobility 	totalCO2Emission 	349.95889331966
scalar RSUExampleScenario.node[81].appl 	meanClusterNodes 	0
scalar RSUExampleScenario.node[81].appl 	meanClusterHeadUtility 	0
scalar RSUExampleScenario.node[81].appl 	NumberofCH 	0.45945945945946
scalar RSUExampleScenario.node[81].appl 	NumberofON 	0
scalar RSUExampleScenario.node[81].appl 	NumberofFN 	0.54054054054054
scalar RSUExampleScenario.node[81].veinsmobility 	startTime 	195.3
scalar RSUExampleScenario.node[81].veinsmobility 	totalTime 	254.7
scalar RSUExampleScenario.node[81].veinsmobility 	stopTime 	450
scalar RSUExampleScenario.node[81].veinsmobility 	minSpeed 	0
scalar RSUExampleScenario.node[81].veinsmobility 	maxSpeed 	13.997263753663
scalar RSUExampleScenario.node[81].veinsmobility 	totalDistance 	455.69666530225
scalar RSUExampleScenario.node[81].veinsmobility 	totalCO2Emission 	344.70153042254
scalar RSUExampleScenario.node[82].appl 	meanClusterNodes 	0
scalar RSUExampleScenario.node[82].appl 	meanClusterHeadUtility 	0
scalar RSUExampleScenario.node[82].appl 	NumberofCH 	0.51351351351351
scalar RSUExampleScenario.node[82].appl 	NumberofON 	0
scalar RSUExampleScenario.node[82].appl 	NumberofFN 	0.48648648648649
scalar RSUExampleScenario.node[82].veinsmobility 	startTime 	197.7
scalar RSUExampleScenario.node[82].veinsmobility 	totalTime 	252.3
scalar RSUExampleScenario.node[82].veinsmobility 	stopTime 	450
scalar RSUExampleScenario.node[82].veinsmobility 	minSpeed 	0
scalar RSUExampleScenario.node[82].veinsmobility 	maxSpeed 	13.998945898339
scalar RSUExampleScenario.node[82].veinsmobility 	totalDistance 	422.76709862925
scalar RSUExampleScenario.node[82].veinsmobility 	totalCO2Emission 	339.52597006718
scalar RSUExampleScenario.node[83].appl 	meanClusterNodes 	0
scalar RSUExampleScenario.node[83].appl 	meanClusterHeadUtility 	0
scalar RSUExampleScenario.node[83].appl 	NumberofCH 	0.51351351351351
scalar RSUExampleScenario.node[83].appl 	NumberofON 	0
scalar RSUExampleScenario.node[83].appl 	NumberofFN 	0.48648648648649
scalar RSUExampleScenario.node[83].veinsmobility 	startTime 	200.1
scalar RSUExampleScenario.node[83].veinsmobility 	totalTime 	249.9
scalar RSUExampleScenario.node[83].veinsmobility 	stopTime 	450
scalar RSUExampleScenario.node[83].veinsmobility 	minSpeed 	0
scalar RSUExampleScenario.node[83].veinsmobility 	maxSpeed 	13.992797659764
scalar RSUExampleScenario.node[83].veinsmobility 	totalDistance 	389.92603491242
scalar RSUExampleScenario.node[83].veinsmobility 	totalCO2Emission 	334.22552199146
scalar RSUExampleScenario.node[84].appl 	meanClusterNodes 	0
scalar RSUExampleScenario.node[84].appl 	meanClusterHeadUtility 	0
scalar RSUExampleScenario.node[84].appl 	NumberofCH 	0.51351351351351
scalar RSUExampleScenario.node[84].appl 	NumberofON 	0
scalar RSUExampleScenario.node[84].appl 	NumberofFN 	0.48648648648649
scalar RSUExampleScenario.node[84].veinsmobility 	startTime 	202.5
scalar RSUExampleScenario.node[84].veinsmobility 	totalTime 	247.5
scalar RSUExampleScenario.node[84].veinsmobility 	stopTime 	450
scalar RSUExampleScenario.node[84].veinsmobility 	minSpeed 	0
scalar RSUExampleScenario.node[84].veinsmobility 	maxSpeed 	13.99685721705
scalar RSUExampleScenario.node[84].veinsmobility 	totalDistance 	356.70026260886
scalar RSUExampleScenario.node[84].veinsmobility 	totalCO2Emission 	328.62077031811
scalar RSUExampleScenario.node[85].appl 	meanClusterNodes 	0
scalar RSUExampleScenario.node[85].appl 	meanClusterHeadUtility 	0
scalar RSUExampleScenario.node[85].appl 	NumberofCH 	0.51351351351351
scalar RSUExampleScenario.node[85].appl 	NumberofON 	0
scalar RSUExampleScenario.node[85].appl 	NumberofFN 	0.48648648648649
scalar RSUExampleScenario.node[85].veinsmobility 	startTime 	204.9
scalar RSUExampleScenario.node[85].veinsmobility 	totalTime 	245.1
scalar RSUExampleScenario.node[85].veinsmobility 	stopTime 	450
scalar RSUExampleScenario.node[85].veinsmobility 	minSpeed 	0
scalar RSUExampleScenario.node[85].veinsmobility 	maxSpeed 	13.99941187649
scalar RSUExampleScenario.node[85].veinsmobility 	totalDistance 	322.68194812744
scalar RSUExampleScenario.node[85].veinsmobility 	totalCO2Emission 	323.38994536723
scalar RSUExampleScenario.node[86].appl 	meanClusterNodes 	0
scalar RSUExampleScenario.node[86].appl 	meanClusterHeadUtility 	0
scalar RSUExampleScenario.node[86].appl 	NumberofCH 	0.51351351351351
scalar RSUExampleScenario.node[86].appl 	NumberofON 	0
scalar RSUExampleScenario.node[86].appl 	NumberofFN 	0.48648648648649
scalar RSUExampleScenario.node[86].veinsmobility 	startTime 	207.3
scalar RSUExampleScenario.node[86].veinsmobility 	totalTime 	242.7
scalar RSUExampleScenario.node[86].veinsmobility 	stopTime 	450
scalar RSUExampleScenario.node[86].veinsmobility 	minSpeed 	0
scalar RSUExampleScenario.node[86].veinsmobility 	maxSpeed 	13.801185369797
scalar RSUExampleScenario.node[86].veinsmobility 	totalDistance 	287.85470726694
scalar RSUExampleScenario.node[86].veinsmobility 	totalCO2Emission 	315.588683479
scalar RSUExampleScenario.node[87].appl 	meanClusterNodes 	0
scalar RSUExampleScenario.node[87].appl 	meanClusterHeadUtility 	0
scalar RSUExampleScenario.node[87].appl 	NumberofCH 	0.45945945945946
scalar RSUExampleScenario.node[87].appl 	NumberofON 	0
scalar RSUExampleScenario.node[87].appl 	NumberofFN 	0.54054054054054
scalar RSUExampleScenario.node[87].veinsmobility 	startTime 	209.7
scalar RSUExampleScenario.node[87].veinsmobility 	totalTime 	240.3
scalar RSUExampleScenario.node[87].veinsmobility 	stopTime 	450
scalar RSUExampleScenario.node[87].veinsmobility 	minSpeed 	0
scalar RSUExampleScenario.node[87].veinsmobility 	maxSpeed 	13.877820366861
scalar RSUExampleScenario.node[87].veinsmobility 	totalDistance 	248.26436379771
scalar RSUExampleScenario.node[87].veinsmobility 	totalCO2Emission 	299.30405127644
scalar RSUExampleScenario.node[88].appl 	meanClusterNodes 	0
scalar RSUExampleScenario.node[88].appl 	meanClusterHeadUtility 	0
scalar RSUExampleScenario.node[88].appl 	NumberofCH 	0.48648648648649
scalar RSUExampleScenario.node[88].appl 	NumberofON 	0
scalar RSUExampleScenario.node[88].appl 	NumberofFN 	0.51351351351351
scalar RSUExampleScenario.node[88].veinsmobility 	startTime 	212.1
scalar RSUExampleScenario.node[88].veinsmobility 	totalTime 	237.9
scalar RSUExampleScenario.node[88].veinsmobility 	stopTime 	450
scalar RSUExampleScenario.node[88].veinsmobility 	minSpeed 	0
scalar RSUExampleScenario.node[88].veinsmobility 	maxSpeed 	13.850622752316
scalar RSUExampleScenario.node[88].veinsmobility 	totalDistance 	226.05984297973
scalar RSUExampleScenario.node[88].veinsmobility 	totalCO2Emission 	287.11642862186
scalar RSUExampleScenario.node[89].appl 	meanClusterNodes 	0
scalar RSUExampleScenario.node[89].appl 	meanClusterHeadUtility 	0
scalar RSUExampleScenario.node[89].appl 	NumberofCH 	0.48648648648649
scalar RSUExampleScenario.node[89].appl 	NumberofON 	0
scalar RSUExampleScenario.node[89].appl 	NumberofFN 	0.51351351351351
scalar RSUExampleScenario.node[89].veinsmobility 	startTime 	214.5
scalar RSUExampleScenario.node[89].veinsmobility 	totalTime 	235.5
scalar RSUExampleScenario.node[89].veinsmobility 	stopTime 	450
scalar RSUExampleScenario.node[89].veinsmobility 	minSpeed 	0
scalar RSUExampleScenario.node[89].veinsmobility 	maxSpeed 	13.769584178631
scalar RSUExampleScenario.node[89].veinsmobility 	totalDistance 	215.39378857923
scalar RSUExampleScenario.node[89].veinsmobility 	totalCO2Emission 	283.37479782308
scalar RSUExampleScenario.node[9].appl 	meanClusterNodes 	0
scalar RSUExampleScenario.node[9].appl 	meanClusterHeadUtility 	0
scalar RSUExampleScenario.node[9].appl 	NumberofCH 	0.45945945945946
scalar RSUExampleScenario.node[9].appl 	NumberofON 	0
scalar RSUExampleScenario.node[9].appl 	NumberofFN 	0.54054054054054
scalar RSUExampleScenario.node[9].veinsmobility 	startTime 	21.7
scalar RSUExampleScenario.node[9].veinsmobility 	totalTime 	428.3
scalar RSUExampleScenario.node[9].veinsmobility 	stopTime 	450
scalar RSUExampleScenario.node[9].veinsmobility 	minSpeed 	0
scalar RSUExampleScenario.node[9].veinsmobility 	maxSpeed 	13.999903177654
scalar RSUExampleScenario.node[9].veinsmobility 	totalDistance 	2824.9669900588
scalar RSUExampleScenario.node[9].veinsmobility 	totalCO2Emission 	768.02411870205
scalar RSUExampleScenario.node[90].appl 	meanClusterNodes 	0
scalar RSUExampleScenario.node[90].appl 	meanClusterHeadUtility 	0
scalar RSUExampleScenario.node[90].appl 	NumberofCH 	0.48648648648649
scalar RSUExampleScenario.node[90].appl 	NumberofON 	0
scalar RSUExampleScenario.node[90].appl 	NumberofFN 	0.51351351351351
scalar RSUExampleScenario.node[90].veinsmobility 	startTime 	217
scalar RSUExampleScenario.node[90].veinsmobility 	totalTime 	233
scalar RSUExampleScenario.node[90].veinsmobility 	stopTime 	450
scalar RSUExampleScenario.node[90].veinsmobility 	minSpeed 	0
scalar RSUExampleScenario.node[90].veinsmobility 	maxSpeed 	13.884756229888
scalar RSUExampleScenario.node[90].veinsmobility 	totalDistance 	202.36756011054
scalar RSUExampleScenario.node[90].veinsmobility 	totalCO2Emission 	280.00724895917
scalar RSUExampleScenario.node[91].appl 	meanClusterNodes 	0
scalar RSUExampleScenario.node[91].appl 	meanClusterHeadUtility 	0
scalar RSUExampleScenario.node[91].appl 	NumberofCH 	0.48648648648649
scalar RSUExampleScenario.node[91].appl 	NumberofON 	0
scalar RSUExampleScenario.node[91].appl 	NumberofFN 	0.51351351351351
scalar RSUExampleScenario.node[91].veinsmobility 	startTime 	219.4
scalar RSUExampleScenario.node[91].veinsmobility 	totalTime 	230.6
scalar RSUExampleScenario.node[91].veinsmobility 	stopTime 	450
scalar RSUExampleScenario.node[91].veinsmobility 	minSpeed 	0
scalar RSUExampleScenario.node[91].veinsmobility 	maxSpeed 	13.884108204616
scalar RSUExampleScenario.node[91].veinsmobility 	totalDistance 	185.43290479691
scalar RSUExampleScenario.node[91].veinsmobility 	totalCO2Emission 	277.91312299508
scalar RSUExampleScenario.node[92].appl 	meanClusterNodes 	0
scalar RSUExampleScenario.node[92].appl 	meanClusterHeadUtility 	0
scalar RSUExampleScenario.node[92].appl 	NumberofCH 	0.54054054054054
scalar RSUExampleScenario.node[92].appl 	NumberofON 	0
scalar RSUExampleScenario.node[92].appl 	NumberofFN 	0.45945945945946
scalar RSUExampleScenario.node[92].veinsmobility 	startTime 	221.8
scalar RSUExampleScenario.node[92].veinsmobility 	totalTime 	228.2
scalar RSUExampleScenario.node[92].veinsmobility 	stopTime 	450
scalar RSUExampleScenario.node[92].veinsmobility 	minSpeed 	0
scalar RSUExampleScenario.node[92].veinsmobility 	maxSpeed 	13.824464800863
scalar RSUExampleScenario.node[92].veinsmobility 	totalDistance 	151.51684405899
scalar RSUExampleScenario.node[92].veinsmobility 	totalCO2Emission 	264.65189456735
scalar RSUExampleScenario.node[93].appl 	meanClusterNodes 	0
scalar RSUExampleScenario.node[93].appl 	meanClusterHeadUtility 	0
scalar RSUExampleScenario.node[93].appl 	NumberofCH 	0.48648648648649
scalar RSUExampleScenario.node[93].appl 	NumberofON 	0
scalar RSUExampleScenario.node[93].appl 	NumberofFN 	0.51351351351351
scalar RSUExampleScenario.node[93].veinsmobility 	startTime 	224.2
scalar RSUExampleScenario.node[93].veinsmobility 	totalTime 	225.8
scalar RSUExampleScenario.node[93].veinsmobility 	stopTime 	450
scalar RSUExampleScenario.node[93].veinsmobility 	minSpeed 	0
scalar RSUExampleScenario.node[93].veinsmobility 	maxSpeed 	13.82537089458
scalar RSUExampleScenario.node[93].veinsmobility 	totalDistance 	123.71044993397
scalar RSUExampleScenario.node[93].veinsmobility 	totalCO2Emission 	251.53321046659
scalar RSUExampleScenario.node[94].appl 	meanClusterNodes 	0
scalar RSUExampleScenario.node[94].appl 	meanClusterHeadUtility 	0
scalar RSUExampleScenario.node[94].appl 	NumberofCH 	0.48648648648649
scalar RSUExampleScenario.node[94].appl 	NumberofON 	0
scalar RSUExampleScenario.node[94].appl 	NumberofFN 	0.51351351351351
scalar RSUExampleScenario.node[94].veinsmobility 	startTime 	226.6
scalar RSUExampleScenario.node[94].veinsmobility 	totalTime 	223.4
scalar RSUExampleScenario.node[94].veinsmobility 	stopTime 	450
scalar RSUExampleScenario.node[94].veinsmobility 	minSpeed 	0
scalar RSUExampleScenario.node[94].veinsmobility 	maxSpeed 	13.787527168992
scalar RSUExampleScenario.node[94].veinsmobility 	totalDistance 	112.32822095316
scalar RSUExampleScenario.node[94].veinsmobility 	totalCO2Emission 	246.05756071708
scalar RSUExampleScenario.node[95].appl 	meanClusterNodes 	0
scalar RSUExampleScenario.node[95].appl 	meanClusterHeadUtility 	0
scalar RSUExampleScenario.node[95].appl 	NumberofCH 	0.54054054054054
scalar RSUExampleScenario.node[95].appl 	NumberofON 	0
scalar RSUExampleScenario.node[95].appl 	NumberofFN 	0.45945945945946
scalar RSUExampleScenario.node[95].veinsmobility 	startTime 	229
scalar RSUExampleScenario.node[95].veinsmobility 	totalTime 	221
scalar RSUExampleScenario.node[95].veinsmobility 	stopTime 	450
scalar RSUExampleScenario.node[95].veinsmobility 	minSpeed 	0
scalar RSUExampleScenario.node[95].veinsmobility 	maxSpeed 	13.807334575271
scalar RSUExampleScenario.node[95].veinsmobility 	totalDistance 	99.27679839421
scalar RSUExampleScenario.node[95].veinsmobility 	totalCO2Emission 	242.45284652734
scalar RSUExampleScenario.node[96].appl 	meanClusterNodes 	0
scalar RSUExampleScenario.node[96].appl 	meanClusterHeadUtility 	0
scalar RSUExampleScenario.node[96].appl 	NumberofCH 	0.48648648648649
scalar RSUExampleScenario.node[96].appl 	NumberofON 	0
scalar RSUExampleScenario.node[96].appl 	NumberofFN 	0.51351351351351
scalar RSUExampleScenario.node[96].veinsmobility 	startTime 	231.4
scalar RSUExampleScenario.node[96].veinsmobility 	totalTime 	218.6
scalar RSUExampleScenario.node[96].veinsmobility 	stopTime 	450
scalar RSUExampleScenario.node[96].veinsmobility 	minSpeed 	0
scalar RSUExampleScenario.node[96].veinsmobility 	maxSpeed 	13.801203928965
scalar RSUExampleScenario.node[96].veinsmobility 	totalDistance 	83.670485495572
scalar RSUExampleScenario.node[96].veinsmobility 	totalCO2Emission 	239.60479562065
scalar RSUExampleScenario.node[97].appl 	meanClusterNodes 	0
scalar RSUExampleScenario.node[97].appl 	meanClusterHeadUtility 	0
scalar RSUExampleScenario.node[97].appl 	NumberofCH 	0.45945945945946
scalar RSUExampleScenario.node[97].appl 	NumberofON 	0
scalar RSUExampleScenario.node[97].appl 	NumberofFN 	0.54054054054054
scalar RSUExampleScenario.node[97].veinsmobility 	startTime 	233.8
scalar RSUExampleScenario.node[97].veinsmobility 	totalTime 	216.2
scalar RSUExampleScenario.node[97].veinsmobility 	stopTime 	450
scalar RSUExampleScenario.node[97].veinsmobility 	minSpeed 	0
scalar RSUExampleScenario.node[97].veinsmobility 	maxSpeed 	12.602763656359
scalar RSUExampleScenario.node[97].veinsmobility 	totalDistance 	57.635471094341
scalar RSUExampleScenario.node[97].veinsmobility 	totalCO2Emission 	232.81068165731
scalar RSUExampleScenario.node[98].appl 	meanClusterNodes 	0
scalar RSUExampleScenario.node[98].appl 	meanClusterHeadUtility 	0
scalar RSUExampleScenario.node[98].appl 	NumberofCH 	0.51351351351351
scalar RSUExampleScenario.node[98].appl 	NumberofON 	0
scalar RSUExampleScenario.node[98].appl 	NumberofFN 	0.48648648648649
scalar RSUExampleScenario.node[98].veinsmobility 	startTime 	236.2
scalar RSUExampleScenario.node[98].veinsmobility 	totalTime 	213.8
scalar RSUExampleScenario.node[98].veinsmobility 	stopTime 	450
scalar RSUExampleScenario.node[98].veinsmobility 	minSpeed 	0
scalar RSUExampleScenario.node[98].veinsmobility 	maxSpeed 	7.6951865674977
scalar RSUExampleScenario.node[98].veinsmobility 	totalDistance 	21.386142904888
scalar RSUExampleScenario.node[98].veinsmobility 	totalCO2Emission 	216.52481196018
scalar RSUExampleScenario.node[99].appl 	meanClusterNodes 	0
scalar RSUExampleScenario.node[99].appl 	meanClusterHeadUtility 	0
scalar RSUExampleScenario.node[99].appl 	NumberofCH 	0.48648648648649
scalar RSUExampleScenario.node[99].appl 	NumberofON 	0
scalar RSUExampleScenario.node[99].appl 	NumberofFN 	0.51351351351351
scalar RSUExampleScenario.node[99].veinsmobility 	startTime 	238.6
scalar RSUExampleScenario.node[99].veinsmobility 	totalTime 	211.4
scalar RSUExampleScenario.node[99].veinsmobility 	stopTime 	450
scalar RSUExampleScenario.node[99].veinsmobility 	minSpeed 	0
scalar RSUExampleScenario.node[99].veinsmobility 	maxSpeed 	3.117827444437
scalar RSUExampleScenario.node[99].veinsmobility 	totalDistance 	3.3042514529054
scalar RSUExampleScenario.node[99].veinsmobility 	totalCO2Emission 	207.12804431094
