version 2
run statisticLeach-457-20150323-09:26:49-11364
attr c 18
attr configname statisticLeach
attr datetime 20150323-09:26:49
attr experiment statisticLeach
attr inifile omnetpp.ini
attr iterationvars "$p=1/10, $c=18"
attr iterationvars2 "$p=1/10, $c=18, $repetition=7"
attr measurement "$p=1/10, $c=18"
attr network RSUExampleScenario
attr p 1/10
attr processid 11364
attr repetition 7
attr replication #7
attr resultdir results
attr runnumber 457
attr seedset 457

scalar . 	c 	18
scalar RSUExampleScenario.node[0].appl 	meanClusterNodes 	4
scalar RSUExampleScenario.node[0].appl 	meanClusterHeadUtility 	16.885482898396
scalar RSUExampleScenario.node[0].appl 	NumberofCH 	0.054054054054054
scalar RSUExampleScenario.node[0].appl 	NumberofON 	0.32432432432432
scalar RSUExampleScenario.node[0].appl 	NumberofFN 	0.62162162162162
scalar RSUExampleScenario.node[0].veinsmobility 	startTime 	0.1
scalar RSUExampleScenario.node[0].veinsmobility 	totalTime 	449.9
scalar RSUExampleScenario.node[0].veinsmobility 	stopTime 	450
scalar RSUExampleScenario.node[0].veinsmobility 	minSpeed 	0
scalar RSUExampleScenario.node[0].veinsmobility 	maxSpeed 	13.999920145886
scalar RSUExampleScenario.node[0].veinsmobility 	totalDistance 	3133.2303685781
scalar RSUExampleScenario.node[0].veinsmobility 	totalCO2Emission 	840.78745616939
scalar RSUExampleScenario.node[1].appl 	meanClusterNodes 	5
scalar RSUExampleScenario.node[1].appl 	meanClusterHeadUtility 	9.7140069841715
scalar RSUExampleScenario.node[1].appl 	NumberofCH 	0.10810810810811
scalar RSUExampleScenario.node[1].appl 	NumberofON 	0.16216216216216
scalar RSUExampleScenario.node[1].appl 	NumberofFN 	0.72972972972973
scalar RSUExampleScenario.node[1].veinsmobility 	startTime 	2.5
scalar RSUExampleScenario.node[1].veinsmobility 	totalTime 	447.5
scalar RSUExampleScenario.node[1].veinsmobility 	stopTime 	450
scalar RSUExampleScenario.node[1].veinsmobility 	minSpeed 	0
scalar RSUExampleScenario.node[1].veinsmobility 	maxSpeed 	13.999984165092
scalar RSUExampleScenario.node[1].veinsmobility 	totalDistance 	3082.0097365796
scalar RSUExampleScenario.node[1].veinsmobility 	totalCO2Emission 	829.67268074979
scalar RSUExampleScenario.node[10].appl 	meanClusterNodes 	4.25
scalar RSUExampleScenario.node[10].appl 	meanClusterHeadUtility 	10.022659339137
scalar RSUExampleScenario.node[10].appl 	NumberofCH 	0.10810810810811
scalar RSUExampleScenario.node[10].appl 	NumberofON 	0.51351351351351
scalar RSUExampleScenario.node[10].appl 	NumberofFN 	0.37837837837838
scalar RSUExampleScenario.node[10].veinsmobility 	startTime 	24.2
scalar RSUExampleScenario.node[10].veinsmobility 	totalTime 	425.8
scalar RSUExampleScenario.node[10].veinsmobility 	stopTime 	450
scalar RSUExampleScenario.node[10].veinsmobility 	minSpeed 	0
scalar RSUExampleScenario.node[10].veinsmobility 	maxSpeed 	13.999997740767
scalar RSUExampleScenario.node[10].veinsmobility 	totalDistance 	2786.7491503352
scalar RSUExampleScenario.node[10].veinsmobility 	totalCO2Emission 	755.99148044294
scalar RSUExampleScenario.node[11].appl 	meanClusterNodes 	4
scalar RSUExampleScenario.node[11].appl 	meanClusterHeadUtility 	9.9073074169969
scalar RSUExampleScenario.node[11].appl 	NumberofCH 	0.10810810810811
scalar RSUExampleScenario.node[11].appl 	NumberofON 	0.64864864864865
scalar RSUExampleScenario.node[11].appl 	NumberofFN 	0.24324324324324
scalar RSUExampleScenario.node[11].veinsmobility 	startTime 	26.6
scalar RSUExampleScenario.node[11].veinsmobility 	totalTime 	423.4
scalar RSUExampleScenario.node[11].veinsmobility 	stopTime 	450
scalar RSUExampleScenario.node[11].veinsmobility 	minSpeed 	0
scalar RSUExampleScenario.node[11].veinsmobility 	maxSpeed 	13.999989095293
scalar RSUExampleScenario.node[11].veinsmobility 	totalDistance 	2756.3423078006
scalar RSUExampleScenario.node[11].veinsmobility 	totalCO2Emission 	752.37337049614
scalar RSUExampleScenario.node[12].appl 	meanClusterNodes 	2.75
scalar RSUExampleScenario.node[12].appl 	meanClusterHeadUtility 	9.1529275261691
scalar RSUExampleScenario.node[12].appl 	NumberofCH 	0.10810810810811
scalar RSUExampleScenario.node[12].appl 	NumberofON 	0.72972972972973
scalar RSUExampleScenario.node[12].appl 	NumberofFN 	0.16216216216216
scalar RSUExampleScenario.node[12].veinsmobility 	startTime 	29
scalar RSUExampleScenario.node[12].veinsmobility 	totalTime 	421
scalar RSUExampleScenario.node[12].veinsmobility 	stopTime 	450
scalar RSUExampleScenario.node[12].veinsmobility 	minSpeed 	0
scalar RSUExampleScenario.node[12].veinsmobility 	maxSpeed 	13.999995857826
scalar RSUExampleScenario.node[12].veinsmobility 	totalDistance 	2717.1970012284
scalar RSUExampleScenario.node[12].veinsmobility 	totalCO2Emission 	749.50576465404
scalar RSUExampleScenario.node[13].appl 	meanClusterNodes 	5.5
scalar RSUExampleScenario.node[13].appl 	meanClusterHeadUtility 	8.566621684134
scalar RSUExampleScenario.node[13].appl 	NumberofCH 	0.10810810810811
scalar RSUExampleScenario.node[13].appl 	NumberofON 	0.40540540540541
scalar RSUExampleScenario.node[13].appl 	NumberofFN 	0.48648648648649
scalar RSUExampleScenario.node[13].veinsmobility 	startTime 	31.4
scalar RSUExampleScenario.node[13].veinsmobility 	totalTime 	418.6
scalar RSUExampleScenario.node[13].veinsmobility 	stopTime 	450
scalar RSUExampleScenario.node[13].veinsmobility 	minSpeed 	0
scalar RSUExampleScenario.node[13].veinsmobility 	maxSpeed 	13.999901882487
scalar RSUExampleScenario.node[13].veinsmobility 	totalDistance 	2681.8835170267
scalar RSUExampleScenario.node[13].veinsmobility 	totalCO2Emission 	738.71723898903
scalar RSUExampleScenario.node[14].appl 	meanClusterNodes 	4.75
scalar RSUExampleScenario.node[14].appl 	meanClusterHeadUtility 	9.2411336381505
scalar RSUExampleScenario.node[14].appl 	NumberofCH 	0.10810810810811
scalar RSUExampleScenario.node[14].appl 	NumberofON 	0.62162162162162
scalar RSUExampleScenario.node[14].appl 	NumberofFN 	0.27027027027027
scalar RSUExampleScenario.node[14].veinsmobility 	startTime 	33.8
scalar RSUExampleScenario.node[14].veinsmobility 	totalTime 	416.2
scalar RSUExampleScenario.node[14].veinsmobility 	stopTime 	450
scalar RSUExampleScenario.node[14].veinsmobility 	minSpeed 	0
scalar RSUExampleScenario.node[14].veinsmobility 	maxSpeed 	13.999960888347
scalar RSUExampleScenario.node[14].veinsmobility 	totalDistance 	2648.3485858342
scalar RSUExampleScenario.node[14].veinsmobility 	totalCO2Emission 	734.5885635254
scalar RSUExampleScenario.node[15].appl 	meanClusterNodes 	4.5
scalar RSUExampleScenario.node[15].appl 	meanClusterHeadUtility 	20.640279645948
scalar RSUExampleScenario.node[15].appl 	NumberofCH 	0.054054054054054
scalar RSUExampleScenario.node[15].appl 	NumberofON 	0.7027027027027
scalar RSUExampleScenario.node[15].appl 	NumberofFN 	0.24324324324324
scalar RSUExampleScenario.node[15].veinsmobility 	startTime 	36.2
scalar RSUExampleScenario.node[15].veinsmobility 	totalTime 	413.8
scalar RSUExampleScenario.node[15].veinsmobility 	stopTime 	450
scalar RSUExampleScenario.node[15].veinsmobility 	minSpeed 	0
scalar RSUExampleScenario.node[15].veinsmobility 	maxSpeed 	13.99999610109
scalar RSUExampleScenario.node[15].veinsmobility 	totalDistance 	2617.1640382013
scalar RSUExampleScenario.node[15].veinsmobility 	totalCO2Emission 	730.30889301088
scalar RSUExampleScenario.node[16].appl 	meanClusterNodes 	2
scalar RSUExampleScenario.node[16].appl 	meanClusterHeadUtility 	8.7637338717575
scalar RSUExampleScenario.node[16].appl 	NumberofCH 	0.10810810810811
scalar RSUExampleScenario.node[16].appl 	NumberofON 	0.72972972972973
scalar RSUExampleScenario.node[16].appl 	NumberofFN 	0.16216216216216
scalar RSUExampleScenario.node[16].veinsmobility 	startTime 	38.6
scalar RSUExampleScenario.node[16].veinsmobility 	totalTime 	411.4
scalar RSUExampleScenario.node[16].veinsmobility 	stopTime 	450
scalar RSUExampleScenario.node[16].veinsmobility 	minSpeed 	0
scalar RSUExampleScenario.node[16].veinsmobility 	maxSpeed 	13.999789759312
scalar RSUExampleScenario.node[16].veinsmobility 	totalDistance 	2580.0673929154
scalar RSUExampleScenario.node[16].veinsmobility 	totalCO2Emission 	725.32918438883
scalar RSUExampleScenario.node[17].appl 	meanClusterNodes 	1.5
scalar RSUExampleScenario.node[17].appl 	meanClusterHeadUtility 	8.1010155971949
scalar RSUExampleScenario.node[17].appl 	NumberofCH 	0.10810810810811
scalar RSUExampleScenario.node[17].appl 	NumberofON 	0.7027027027027
scalar RSUExampleScenario.node[17].appl 	NumberofFN 	0.18918918918919
scalar RSUExampleScenario.node[17].veinsmobility 	startTime 	41
scalar RSUExampleScenario.node[17].veinsmobility 	totalTime 	409
scalar RSUExampleScenario.node[17].veinsmobility 	stopTime 	450
scalar RSUExampleScenario.node[17].veinsmobility 	minSpeed 	0
scalar RSUExampleScenario.node[17].veinsmobility 	maxSpeed 	13.999954724726
scalar RSUExampleScenario.node[17].veinsmobility 	totalDistance 	2542.5161147478
scalar RSUExampleScenario.node[17].veinsmobility 	totalCO2Emission 	719.37884119237
scalar RSUExampleScenario.node[18].appl 	meanClusterNodes 	4.25
scalar RSUExampleScenario.node[18].appl 	meanClusterHeadUtility 	8.17438040301
scalar RSUExampleScenario.node[18].appl 	NumberofCH 	0.10810810810811
scalar RSUExampleScenario.node[18].appl 	NumberofON 	0.54054054054054
scalar RSUExampleScenario.node[18].appl 	NumberofFN 	0.35135135135135
scalar RSUExampleScenario.node[18].veinsmobility 	startTime 	43.4
scalar RSUExampleScenario.node[18].veinsmobility 	totalTime 	406.6
scalar RSUExampleScenario.node[18].veinsmobility 	stopTime 	450
scalar RSUExampleScenario.node[18].veinsmobility 	minSpeed 	0
scalar RSUExampleScenario.node[18].veinsmobility 	maxSpeed 	13.99994858871
scalar RSUExampleScenario.node[18].veinsmobility 	totalDistance 	2504.5520419746
scalar RSUExampleScenario.node[18].veinsmobility 	totalCO2Emission 	716.13833365209
scalar RSUExampleScenario.node[19].appl 	meanClusterNodes 	7.25
scalar RSUExampleScenario.node[19].appl 	meanClusterHeadUtility 	8.6426647547535
scalar RSUExampleScenario.node[19].appl 	NumberofCH 	0.10810810810811
scalar RSUExampleScenario.node[19].appl 	NumberofON 	0.40540540540541
scalar RSUExampleScenario.node[19].appl 	NumberofFN 	0.48648648648649
scalar RSUExampleScenario.node[19].veinsmobility 	startTime 	45.8
scalar RSUExampleScenario.node[19].veinsmobility 	totalTime 	404.2
scalar RSUExampleScenario.node[19].veinsmobility 	stopTime 	450
scalar RSUExampleScenario.node[19].veinsmobility 	minSpeed 	0
scalar RSUExampleScenario.node[19].veinsmobility 	maxSpeed 	13.999936957662
scalar RSUExampleScenario.node[19].veinsmobility 	totalDistance 	2475.9010305166
scalar RSUExampleScenario.node[19].veinsmobility 	totalCO2Emission 	704.8027624478
scalar RSUExampleScenario.node[2].appl 	meanClusterNodes 	4.5
scalar RSUExampleScenario.node[2].appl 	meanClusterHeadUtility 	18.692621913756
scalar RSUExampleScenario.node[2].appl 	NumberofCH 	0.054054054054054
scalar RSUExampleScenario.node[2].appl 	NumberofON 	0.32432432432432
scalar RSUExampleScenario.node[2].appl 	NumberofFN 	0.62162162162162
scalar RSUExampleScenario.node[2].veinsmobility 	startTime 	4.9
scalar RSUExampleScenario.node[2].veinsmobility 	totalTime 	445.1
scalar RSUExampleScenario.node[2].veinsmobility 	stopTime 	450
scalar RSUExampleScenario.node[2].veinsmobility 	minSpeed 	0
scalar RSUExampleScenario.node[2].veinsmobility 	maxSpeed 	13.999980935196
scalar RSUExampleScenario.node[2].veinsmobility 	totalDistance 	3034.1683553343
scalar RSUExampleScenario.node[2].veinsmobility 	totalCO2Emission 	822.44448180596
scalar RSUExampleScenario.node[20].appl 	meanClusterNodes 	0
scalar RSUExampleScenario.node[20].appl 	meanClusterHeadUtility 	0
scalar RSUExampleScenario.node[20].appl 	NumberofCH 	0.054054054054054
scalar RSUExampleScenario.node[20].appl 	NumberofON 	0
scalar RSUExampleScenario.node[20].appl 	NumberofFN 	0.94594594594595
scalar RSUExampleScenario.node[20].veinsmobility 	startTime 	48.3
scalar RSUExampleScenario.node[20].veinsmobility 	totalTime 	401.7
scalar RSUExampleScenario.node[20].veinsmobility 	stopTime 	450
scalar RSUExampleScenario.node[20].veinsmobility 	minSpeed 	0
scalar RSUExampleScenario.node[20].veinsmobility 	maxSpeed 	13.999910045611
scalar RSUExampleScenario.node[20].veinsmobility 	totalDistance 	2437.0928364583
scalar RSUExampleScenario.node[20].veinsmobility 	totalCO2Emission 	700.24262323314
scalar RSUExampleScenario.node[21].appl 	meanClusterNodes 	6.5
scalar RSUExampleScenario.node[21].appl 	meanClusterHeadUtility 	8.2898895978187
scalar RSUExampleScenario.node[21].appl 	NumberofCH 	0.10810810810811
scalar RSUExampleScenario.node[21].appl 	NumberofON 	0.62162162162162
scalar RSUExampleScenario.node[21].appl 	NumberofFN 	0.27027027027027
scalar RSUExampleScenario.node[21].veinsmobility 	startTime 	50.7
scalar RSUExampleScenario.node[21].veinsmobility 	totalTime 	399.3
scalar RSUExampleScenario.node[21].veinsmobility 	stopTime 	450
scalar RSUExampleScenario.node[21].veinsmobility 	minSpeed 	0
scalar RSUExampleScenario.node[21].veinsmobility 	maxSpeed 	13.999945020902
scalar RSUExampleScenario.node[21].veinsmobility 	totalDistance 	2407.7808604028
scalar RSUExampleScenario.node[21].veinsmobility 	totalCO2Emission 	690.79809133829
scalar RSUExampleScenario.node[22].appl 	meanClusterNodes 	4.5
scalar RSUExampleScenario.node[22].appl 	meanClusterHeadUtility 	8.5862536282673
scalar RSUExampleScenario.node[22].appl 	NumberofCH 	0.10810810810811
scalar RSUExampleScenario.node[22].appl 	NumberofON 	0.37837837837838
scalar RSUExampleScenario.node[22].appl 	NumberofFN 	0.51351351351351
scalar RSUExampleScenario.node[22].veinsmobility 	startTime 	53.1
scalar RSUExampleScenario.node[22].veinsmobility 	totalTime 	396.9
scalar RSUExampleScenario.node[22].veinsmobility 	stopTime 	450
scalar RSUExampleScenario.node[22].veinsmobility 	minSpeed 	0
scalar RSUExampleScenario.node[22].veinsmobility 	maxSpeed 	13.999768925677
scalar RSUExampleScenario.node[22].veinsmobility 	totalDistance 	2369.0163315529
scalar RSUExampleScenario.node[22].veinsmobility 	totalCO2Emission 	687.83726640372
scalar RSUExampleScenario.node[23].appl 	meanClusterNodes 	5
scalar RSUExampleScenario.node[23].appl 	meanClusterHeadUtility 	17.576477294212
scalar RSUExampleScenario.node[23].appl 	NumberofCH 	0.054054054054054
scalar RSUExampleScenario.node[23].appl 	NumberofON 	0.51351351351351
scalar RSUExampleScenario.node[23].appl 	NumberofFN 	0.43243243243243
scalar RSUExampleScenario.node[23].veinsmobility 	startTime 	55.5
scalar RSUExampleScenario.node[23].veinsmobility 	totalTime 	394.5
scalar RSUExampleScenario.node[23].veinsmobility 	stopTime 	450
scalar RSUExampleScenario.node[23].veinsmobility 	minSpeed 	0
scalar RSUExampleScenario.node[23].veinsmobility 	maxSpeed 	13.999202578801
scalar RSUExampleScenario.node[23].veinsmobility 	totalDistance 	2339.274894638
scalar RSUExampleScenario.node[23].veinsmobility 	totalCO2Emission 	683.64340703254
scalar RSUExampleScenario.node[24].appl 	meanClusterNodes 	6
scalar RSUExampleScenario.node[24].appl 	meanClusterHeadUtility 	17.464433646754
scalar RSUExampleScenario.node[24].appl 	NumberofCH 	0.054054054054054
scalar RSUExampleScenario.node[24].appl 	NumberofON 	0.75675675675676
scalar RSUExampleScenario.node[24].appl 	NumberofFN 	0.18918918918919
scalar RSUExampleScenario.node[24].veinsmobility 	startTime 	57.9
scalar RSUExampleScenario.node[24].veinsmobility 	totalTime 	392.1
scalar RSUExampleScenario.node[24].veinsmobility 	stopTime 	450
scalar RSUExampleScenario.node[24].veinsmobility 	minSpeed 	0
scalar RSUExampleScenario.node[24].veinsmobility 	maxSpeed 	13.999978250486
scalar RSUExampleScenario.node[24].veinsmobility 	totalDistance 	2303.143257659
scalar RSUExampleScenario.node[24].veinsmobility 	totalCO2Emission 	676.4247802448
scalar RSUExampleScenario.node[25].appl 	meanClusterNodes 	8.25
scalar RSUExampleScenario.node[25].appl 	meanClusterHeadUtility 	8.103586463708
scalar RSUExampleScenario.node[25].appl 	NumberofCH 	0.10810810810811
scalar RSUExampleScenario.node[25].appl 	NumberofON 	0.59459459459459
scalar RSUExampleScenario.node[25].appl 	NumberofFN 	0.2972972972973
scalar RSUExampleScenario.node[25].veinsmobility 	startTime 	60.3
scalar RSUExampleScenario.node[25].veinsmobility 	totalTime 	389.7
scalar RSUExampleScenario.node[25].veinsmobility 	stopTime 	450
scalar RSUExampleScenario.node[25].veinsmobility 	minSpeed 	0
scalar RSUExampleScenario.node[25].veinsmobility 	maxSpeed 	13.999751930537
scalar RSUExampleScenario.node[25].veinsmobility 	totalDistance 	2271.0193183655
scalar RSUExampleScenario.node[25].veinsmobility 	totalCO2Emission 	673.31672753145
scalar RSUExampleScenario.node[26].appl 	meanClusterNodes 	10
scalar RSUExampleScenario.node[26].appl 	meanClusterHeadUtility 	5.7013059784485
scalar RSUExampleScenario.node[26].appl 	NumberofCH 	0.16216216216216
scalar RSUExampleScenario.node[26].appl 	NumberofON 	0.2972972972973
scalar RSUExampleScenario.node[26].appl 	NumberofFN 	0.54054054054054
scalar RSUExampleScenario.node[26].veinsmobility 	startTime 	62.7
scalar RSUExampleScenario.node[26].veinsmobility 	totalTime 	387.3
scalar RSUExampleScenario.node[26].veinsmobility 	stopTime 	450
scalar RSUExampleScenario.node[26].veinsmobility 	minSpeed 	0
scalar RSUExampleScenario.node[26].veinsmobility 	maxSpeed 	13.999902076293
scalar RSUExampleScenario.node[26].veinsmobility 	totalDistance 	2233.2573460434
scalar RSUExampleScenario.node[26].veinsmobility 	totalCO2Emission 	668.55909288303
scalar RSUExampleScenario.node[27].appl 	meanClusterNodes 	0
scalar RSUExampleScenario.node[27].appl 	meanClusterHeadUtility 	0
scalar RSUExampleScenario.node[27].appl 	NumberofCH 	0.10810810810811
scalar RSUExampleScenario.node[27].appl 	NumberofON 	0
scalar RSUExampleScenario.node[27].appl 	NumberofFN 	0.89189189189189
scalar RSUExampleScenario.node[27].veinsmobility 	startTime 	65.1
scalar RSUExampleScenario.node[27].veinsmobility 	totalTime 	384.9
scalar RSUExampleScenario.node[27].veinsmobility 	stopTime 	450
scalar RSUExampleScenario.node[27].veinsmobility 	minSpeed 	0
scalar RSUExampleScenario.node[27].veinsmobility 	maxSpeed 	13.999968748973
scalar RSUExampleScenario.node[27].veinsmobility 	totalDistance 	2204.9076477696
scalar RSUExampleScenario.node[27].veinsmobility 	totalCO2Emission 	660.01673393715
scalar RSUExampleScenario.node[28].appl 	meanClusterNodes 	2.25
scalar RSUExampleScenario.node[28].appl 	meanClusterHeadUtility 	7.700844555341
scalar RSUExampleScenario.node[28].appl 	NumberofCH 	0.10810810810811
scalar RSUExampleScenario.node[28].appl 	NumberofON 	0.78378378378378
scalar RSUExampleScenario.node[28].appl 	NumberofFN 	0.10810810810811
scalar RSUExampleScenario.node[28].veinsmobility 	startTime 	67.5
scalar RSUExampleScenario.node[28].veinsmobility 	totalTime 	382.5
scalar RSUExampleScenario.node[28].veinsmobility 	stopTime 	450
scalar RSUExampleScenario.node[28].veinsmobility 	minSpeed 	0
scalar RSUExampleScenario.node[28].veinsmobility 	maxSpeed 	13.999956925784
scalar RSUExampleScenario.node[28].veinsmobility 	totalDistance 	2165.5532037653
scalar RSUExampleScenario.node[28].veinsmobility 	totalCO2Emission 	655.00114883031
scalar RSUExampleScenario.node[29].appl 	meanClusterNodes 	10
scalar RSUExampleScenario.node[29].appl 	meanClusterHeadUtility 	16.743734212948
scalar RSUExampleScenario.node[29].appl 	NumberofCH 	0.054054054054054
scalar RSUExampleScenario.node[29].appl 	NumberofON 	0.7027027027027
scalar RSUExampleScenario.node[29].appl 	NumberofFN 	0.24324324324324
scalar RSUExampleScenario.node[29].veinsmobility 	startTime 	69.9
scalar RSUExampleScenario.node[29].veinsmobility 	totalTime 	380.1
scalar RSUExampleScenario.node[29].veinsmobility 	stopTime 	450
scalar RSUExampleScenario.node[29].veinsmobility 	minSpeed 	0
scalar RSUExampleScenario.node[29].veinsmobility 	maxSpeed 	13.999941398157
scalar RSUExampleScenario.node[29].veinsmobility 	totalDistance 	2135.6615910198
scalar RSUExampleScenario.node[29].veinsmobility 	totalCO2Emission 	651.24445186718
scalar RSUExampleScenario.node[3].appl 	meanClusterNodes 	2
scalar RSUExampleScenario.node[3].appl 	meanClusterHeadUtility 	17.024579736255
scalar RSUExampleScenario.node[3].appl 	NumberofCH 	0.054054054054054
scalar RSUExampleScenario.node[3].appl 	NumberofON 	0.45945945945946
scalar RSUExampleScenario.node[3].appl 	NumberofFN 	0.48648648648649
scalar RSUExampleScenario.node[3].veinsmobility 	startTime 	7.3
scalar RSUExampleScenario.node[3].veinsmobility 	totalTime 	442.7
scalar RSUExampleScenario.node[3].veinsmobility 	stopTime 	450
scalar RSUExampleScenario.node[3].veinsmobility 	minSpeed 	0
scalar RSUExampleScenario.node[3].veinsmobility 	maxSpeed 	13.999974215098
scalar RSUExampleScenario.node[3].veinsmobility 	totalDistance 	2996.0135012659
scalar RSUExampleScenario.node[3].veinsmobility 	totalCO2Emission 	813.15621769213
scalar RSUExampleScenario.node[30].appl 	meanClusterNodes 	4
scalar RSUExampleScenario.node[30].appl 	meanClusterHeadUtility 	11.466428534754
scalar RSUExampleScenario.node[30].appl 	NumberofCH 	0.081081081081081
scalar RSUExampleScenario.node[30].appl 	NumberofON 	0.59459459459459
scalar RSUExampleScenario.node[30].appl 	NumberofFN 	0.32432432432432
scalar RSUExampleScenario.node[30].veinsmobility 	startTime 	72.4
scalar RSUExampleScenario.node[30].veinsmobility 	totalTime 	377.6
scalar RSUExampleScenario.node[30].veinsmobility 	stopTime 	450
scalar RSUExampleScenario.node[30].veinsmobility 	minSpeed 	0
scalar RSUExampleScenario.node[30].veinsmobility 	maxSpeed 	13.999853384793
scalar RSUExampleScenario.node[30].veinsmobility 	totalDistance 	2098.6591703713
scalar RSUExampleScenario.node[30].veinsmobility 	totalCO2Emission 	641.43843858933
scalar RSUExampleScenario.node[31].appl 	meanClusterNodes 	3
scalar RSUExampleScenario.node[31].appl 	meanClusterHeadUtility 	9.4052863743552
scalar RSUExampleScenario.node[31].appl 	NumberofCH 	0.10810810810811
scalar RSUExampleScenario.node[31].appl 	NumberofON 	0.2972972972973
scalar RSUExampleScenario.node[31].appl 	NumberofFN 	0.59459459459459
scalar RSUExampleScenario.node[31].veinsmobility 	startTime 	74.8
scalar RSUExampleScenario.node[31].veinsmobility 	totalTime 	375.2
scalar RSUExampleScenario.node[31].veinsmobility 	stopTime 	450
scalar RSUExampleScenario.node[31].veinsmobility 	minSpeed 	0
scalar RSUExampleScenario.node[31].veinsmobility 	maxSpeed 	13.999913725108
scalar RSUExampleScenario.node[31].veinsmobility 	totalDistance 	2068.0278246685
scalar RSUExampleScenario.node[31].veinsmobility 	totalCO2Emission 	637.41237136787
scalar RSUExampleScenario.node[32].appl 	meanClusterNodes 	5.6666666666667
scalar RSUExampleScenario.node[32].appl 	meanClusterHeadUtility 	12.344798118842
scalar RSUExampleScenario.node[32].appl 	NumberofCH 	0.081081081081081
scalar RSUExampleScenario.node[32].appl 	NumberofON 	0.67567567567568
scalar RSUExampleScenario.node[32].appl 	NumberofFN 	0.24324324324324
scalar RSUExampleScenario.node[32].veinsmobility 	startTime 	77.2
scalar RSUExampleScenario.node[32].veinsmobility 	totalTime 	372.8
scalar RSUExampleScenario.node[32].veinsmobility 	stopTime 	450
scalar RSUExampleScenario.node[32].veinsmobility 	minSpeed 	0
scalar RSUExampleScenario.node[32].veinsmobility 	maxSpeed 	13.999985090597
scalar RSUExampleScenario.node[32].veinsmobility 	totalDistance 	2031.2773992475
scalar RSUExampleScenario.node[32].veinsmobility 	totalCO2Emission 	630.9675125779
scalar RSUExampleScenario.node[33].appl 	meanClusterNodes 	6.5
scalar RSUExampleScenario.node[33].appl 	meanClusterHeadUtility 	8.0951064921544
scalar RSUExampleScenario.node[33].appl 	NumberofCH 	0.10810810810811
scalar RSUExampleScenario.node[33].appl 	NumberofON 	0.78378378378378
scalar RSUExampleScenario.node[33].appl 	NumberofFN 	0.10810810810811
scalar RSUExampleScenario.node[33].veinsmobility 	startTime 	79.6
scalar RSUExampleScenario.node[33].veinsmobility 	totalTime 	370.4
scalar RSUExampleScenario.node[33].veinsmobility 	stopTime 	450
scalar RSUExampleScenario.node[33].veinsmobility 	minSpeed 	0
scalar RSUExampleScenario.node[33].veinsmobility 	maxSpeed 	13.999967892389
scalar RSUExampleScenario.node[33].veinsmobility 	totalDistance 	1997.7662838594
scalar RSUExampleScenario.node[33].veinsmobility 	totalCO2Emission 	624.37271884847
scalar RSUExampleScenario.node[34].appl 	meanClusterNodes 	8.25
scalar RSUExampleScenario.node[34].appl 	meanClusterHeadUtility 	8.545802612502
scalar RSUExampleScenario.node[34].appl 	NumberofCH 	0.10810810810811
scalar RSUExampleScenario.node[34].appl 	NumberofON 	0.48648648648649
scalar RSUExampleScenario.node[34].appl 	NumberofFN 	0.40540540540541
scalar RSUExampleScenario.node[34].veinsmobility 	startTime 	82
scalar RSUExampleScenario.node[34].veinsmobility 	totalTime 	368
scalar RSUExampleScenario.node[34].veinsmobility 	stopTime 	450
scalar RSUExampleScenario.node[34].veinsmobility 	minSpeed 	0
scalar RSUExampleScenario.node[34].veinsmobility 	maxSpeed 	13.999413150561
scalar RSUExampleScenario.node[34].veinsmobility 	totalDistance 	1964.0774954446
scalar RSUExampleScenario.node[34].veinsmobility 	totalCO2Emission 	620.15176968486
scalar RSUExampleScenario.node[35].appl 	meanClusterNodes 	6
scalar RSUExampleScenario.node[35].appl 	meanClusterHeadUtility 	16.390959897503
scalar RSUExampleScenario.node[35].appl 	NumberofCH 	0.054054054054054
scalar RSUExampleScenario.node[35].appl 	NumberofON 	0.81081081081081
scalar RSUExampleScenario.node[35].appl 	NumberofFN 	0.13513513513514
scalar RSUExampleScenario.node[35].veinsmobility 	startTime 	84.4
scalar RSUExampleScenario.node[35].veinsmobility 	totalTime 	365.6
scalar RSUExampleScenario.node[35].veinsmobility 	stopTime 	450
scalar RSUExampleScenario.node[35].veinsmobility 	minSpeed 	0
scalar RSUExampleScenario.node[35].veinsmobility 	maxSpeed 	13.999806539065
scalar RSUExampleScenario.node[35].veinsmobility 	totalDistance 	1931.2982239084
scalar RSUExampleScenario.node[35].veinsmobility 	totalCO2Emission 	617.60038819775
scalar RSUExampleScenario.node[36].appl 	meanClusterNodes 	1.75
scalar RSUExampleScenario.node[36].appl 	meanClusterHeadUtility 	7.8812653793247
scalar RSUExampleScenario.node[36].appl 	NumberofCH 	0.10810810810811
scalar RSUExampleScenario.node[36].appl 	NumberofON 	0.56756756756757
scalar RSUExampleScenario.node[36].appl 	NumberofFN 	0.32432432432432
scalar RSUExampleScenario.node[36].veinsmobility 	startTime 	86.8
scalar RSUExampleScenario.node[36].veinsmobility 	totalTime 	363.2
scalar RSUExampleScenario.node[36].veinsmobility 	stopTime 	450
scalar RSUExampleScenario.node[36].veinsmobility 	minSpeed 	0
scalar RSUExampleScenario.node[36].veinsmobility 	maxSpeed 	13.999985398634
scalar RSUExampleScenario.node[36].veinsmobility 	totalDistance 	1897.8836862482
scalar RSUExampleScenario.node[36].veinsmobility 	totalCO2Emission 	606.89383439462
scalar RSUExampleScenario.node[37].appl 	meanClusterNodes 	5.3333333333333
scalar RSUExampleScenario.node[37].appl 	meanClusterHeadUtility 	11.170959874029
scalar RSUExampleScenario.node[37].appl 	NumberofCH 	0.081081081081081
scalar RSUExampleScenario.node[37].appl 	NumberofON 	0.40540540540541
scalar RSUExampleScenario.node[37].appl 	NumberofFN 	0.51351351351351
scalar RSUExampleScenario.node[37].veinsmobility 	startTime 	89.2
scalar RSUExampleScenario.node[37].veinsmobility 	totalTime 	360.8
scalar RSUExampleScenario.node[37].veinsmobility 	stopTime 	450
scalar RSUExampleScenario.node[37].veinsmobility 	minSpeed 	0
scalar RSUExampleScenario.node[37].veinsmobility 	maxSpeed 	13.999957838515
scalar RSUExampleScenario.node[37].veinsmobility 	totalDistance 	1863.4422508172
scalar RSUExampleScenario.node[37].veinsmobility 	totalCO2Emission 	604.17883586388
scalar RSUExampleScenario.node[38].appl 	meanClusterNodes 	9
scalar RSUExampleScenario.node[38].appl 	meanClusterHeadUtility 	8.7165245996333
scalar RSUExampleScenario.node[38].appl 	NumberofCH 	0.10810810810811
scalar RSUExampleScenario.node[38].appl 	NumberofON 	0.72972972972973
scalar RSUExampleScenario.node[38].appl 	NumberofFN 	0.16216216216216
scalar RSUExampleScenario.node[38].veinsmobility 	startTime 	91.6
scalar RSUExampleScenario.node[38].veinsmobility 	totalTime 	358.4
scalar RSUExampleScenario.node[38].veinsmobility 	stopTime 	450
scalar RSUExampleScenario.node[38].veinsmobility 	minSpeed 	0
scalar RSUExampleScenario.node[38].veinsmobility 	maxSpeed 	13.99967515501
scalar RSUExampleScenario.node[38].veinsmobility 	totalDistance 	1830.9725405132
scalar RSUExampleScenario.node[38].veinsmobility 	totalCO2Emission 	597.678108874
scalar RSUExampleScenario.node[39].appl 	meanClusterNodes 	4
scalar RSUExampleScenario.node[39].appl 	meanClusterHeadUtility 	16.344869344463
scalar RSUExampleScenario.node[39].appl 	NumberofCH 	0.054054054054054
scalar RSUExampleScenario.node[39].appl 	NumberofON 	0.59459459459459
scalar RSUExampleScenario.node[39].appl 	NumberofFN 	0.35135135135135
scalar RSUExampleScenario.node[39].veinsmobility 	startTime 	94
scalar RSUExampleScenario.node[39].veinsmobility 	totalTime 	356
scalar RSUExampleScenario.node[39].veinsmobility 	stopTime 	450
scalar RSUExampleScenario.node[39].veinsmobility 	minSpeed 	0
scalar RSUExampleScenario.node[39].veinsmobility 	maxSpeed 	13.9998897512
scalar RSUExampleScenario.node[39].veinsmobility 	totalDistance 	1797.683085598
scalar RSUExampleScenario.node[39].veinsmobility 	totalCO2Emission 	592.004598754
scalar RSUExampleScenario.node[4].appl 	meanClusterNodes 	7.5
scalar RSUExampleScenario.node[4].appl 	meanClusterHeadUtility 	17.988036540777
scalar RSUExampleScenario.node[4].appl 	NumberofCH 	0.054054054054054
scalar RSUExampleScenario.node[4].appl 	NumberofON 	0.43243243243243
scalar RSUExampleScenario.node[4].appl 	NumberofFN 	0.51351351351351
scalar RSUExampleScenario.node[4].veinsmobility 	startTime 	9.7
scalar RSUExampleScenario.node[4].veinsmobility 	totalTime 	440.3
scalar RSUExampleScenario.node[4].veinsmobility 	stopTime 	450
scalar RSUExampleScenario.node[4].veinsmobility 	minSpeed 	0
scalar RSUExampleScenario.node[4].veinsmobility 	maxSpeed 	13.999952594284
scalar RSUExampleScenario.node[4].veinsmobility 	totalDistance 	2943.0785213045
scalar RSUExampleScenario.node[4].veinsmobility 	totalCO2Emission 	797.04711895562
scalar RSUExampleScenario.node[40].appl 	meanClusterNodes 	4.5
scalar RSUExampleScenario.node[40].appl 	meanClusterHeadUtility 	9.2798273836618
scalar RSUExampleScenario.node[40].appl 	NumberofCH 	0.10810810810811
scalar RSUExampleScenario.node[40].appl 	NumberofON 	0.72972972972973
scalar RSUExampleScenario.node[40].appl 	NumberofFN 	0.16216216216216
scalar RSUExampleScenario.node[40].veinsmobility 	startTime 	96.5
scalar RSUExampleScenario.node[40].veinsmobility 	totalTime 	353.5
scalar RSUExampleScenario.node[40].veinsmobility 	stopTime 	450
scalar RSUExampleScenario.node[40].veinsmobility 	minSpeed 	0
scalar RSUExampleScenario.node[40].veinsmobility 	maxSpeed 	13.999910188052
scalar RSUExampleScenario.node[40].veinsmobility 	totalDistance 	1764.0212005992
scalar RSUExampleScenario.node[40].veinsmobility 	totalCO2Emission 	585.79772480432
scalar RSUExampleScenario.node[41].appl 	meanClusterNodes 	3.5
scalar RSUExampleScenario.node[41].appl 	meanClusterHeadUtility 	7.7711308407798
scalar RSUExampleScenario.node[41].appl 	NumberofCH 	0.10810810810811
scalar RSUExampleScenario.node[41].appl 	NumberofON 	0.72972972972973
scalar RSUExampleScenario.node[41].appl 	NumberofFN 	0.16216216216216
scalar RSUExampleScenario.node[41].veinsmobility 	startTime 	98.9
scalar RSUExampleScenario.node[41].veinsmobility 	totalTime 	351.1
scalar RSUExampleScenario.node[41].veinsmobility 	stopTime 	450
scalar RSUExampleScenario.node[41].veinsmobility 	minSpeed 	0
scalar RSUExampleScenario.node[41].veinsmobility 	maxSpeed 	13.999968221704
scalar RSUExampleScenario.node[41].veinsmobility 	totalDistance 	1730.3909964535
scalar RSUExampleScenario.node[41].veinsmobility 	totalCO2Emission 	581.26489144472
scalar RSUExampleScenario.node[42].appl 	meanClusterNodes 	2
scalar RSUExampleScenario.node[42].appl 	meanClusterHeadUtility 	8.2591809631323
scalar RSUExampleScenario.node[42].appl 	NumberofCH 	0.10810810810811
scalar RSUExampleScenario.node[42].appl 	NumberofON 	0.78378378378378
scalar RSUExampleScenario.node[42].appl 	NumberofFN 	0.10810810810811
scalar RSUExampleScenario.node[42].veinsmobility 	startTime 	101.3
scalar RSUExampleScenario.node[42].veinsmobility 	totalTime 	348.7
scalar RSUExampleScenario.node[42].veinsmobility 	stopTime 	450
scalar RSUExampleScenario.node[42].veinsmobility 	minSpeed 	0
scalar RSUExampleScenario.node[42].veinsmobility 	maxSpeed 	13.999935477225
scalar RSUExampleScenario.node[42].veinsmobility 	totalDistance 	1697.6171884569
scalar RSUExampleScenario.node[42].veinsmobility 	totalCO2Emission 	575.90686704538
scalar RSUExampleScenario.node[43].appl 	meanClusterNodes 	5.5
scalar RSUExampleScenario.node[43].appl 	meanClusterHeadUtility 	8.3333077647095
scalar RSUExampleScenario.node[43].appl 	NumberofCH 	0.10810810810811
scalar RSUExampleScenario.node[43].appl 	NumberofON 	0.35135135135135
scalar RSUExampleScenario.node[43].appl 	NumberofFN 	0.54054054054054
scalar RSUExampleScenario.node[43].veinsmobility 	startTime 	103.7
scalar RSUExampleScenario.node[43].veinsmobility 	totalTime 	346.3
scalar RSUExampleScenario.node[43].veinsmobility 	stopTime 	450
scalar RSUExampleScenario.node[43].veinsmobility 	minSpeed 	0
scalar RSUExampleScenario.node[43].veinsmobility 	maxSpeed 	13.999500331706
scalar RSUExampleScenario.node[43].veinsmobility 	totalDistance 	1663.5962913841
scalar RSUExampleScenario.node[43].veinsmobility 	totalCO2Emission 	570.14053738519
scalar RSUExampleScenario.node[44].appl 	meanClusterNodes 	5.5
scalar RSUExampleScenario.node[44].appl 	meanClusterHeadUtility 	8.1837288583443
scalar RSUExampleScenario.node[44].appl 	NumberofCH 	0.10810810810811
scalar RSUExampleScenario.node[44].appl 	NumberofON 	0.56756756756757
scalar RSUExampleScenario.node[44].appl 	NumberofFN 	0.32432432432432
scalar RSUExampleScenario.node[44].veinsmobility 	startTime 	106.1
scalar RSUExampleScenario.node[44].veinsmobility 	totalTime 	343.9
scalar RSUExampleScenario.node[44].veinsmobility 	stopTime 	450
scalar RSUExampleScenario.node[44].veinsmobility 	minSpeed 	0
scalar RSUExampleScenario.node[44].veinsmobility 	maxSpeed 	13.999862997299
scalar RSUExampleScenario.node[44].veinsmobility 	totalDistance 	1629.6386193382
scalar RSUExampleScenario.node[44].veinsmobility 	totalCO2Emission 	563.70659194583
scalar RSUExampleScenario.node[45].appl 	meanClusterNodes 	8
scalar RSUExampleScenario.node[45].appl 	meanClusterHeadUtility 	5.2633656631016
scalar RSUExampleScenario.node[45].appl 	NumberofCH 	0.16216216216216
scalar RSUExampleScenario.node[45].appl 	NumberofON 	0.45945945945946
scalar RSUExampleScenario.node[45].appl 	NumberofFN 	0.37837837837838
scalar RSUExampleScenario.node[45].veinsmobility 	startTime 	108.5
scalar RSUExampleScenario.node[45].veinsmobility 	totalTime 	341.5
scalar RSUExampleScenario.node[45].veinsmobility 	stopTime 	450
scalar RSUExampleScenario.node[45].veinsmobility 	minSpeed 	0
scalar RSUExampleScenario.node[45].veinsmobility 	maxSpeed 	13.999668776062
scalar RSUExampleScenario.node[45].veinsmobility 	totalDistance 	1597.6606016814
scalar RSUExampleScenario.node[45].veinsmobility 	totalCO2Emission 	558.70463193044
scalar RSUExampleScenario.node[46].appl 	meanClusterNodes 	6
scalar RSUExampleScenario.node[46].appl 	meanClusterHeadUtility 	16.586868461339
scalar RSUExampleScenario.node[46].appl 	NumberofCH 	0.054054054054054
scalar RSUExampleScenario.node[46].appl 	NumberofON 	0.62162162162162
scalar RSUExampleScenario.node[46].appl 	NumberofFN 	0.32432432432432
scalar RSUExampleScenario.node[46].veinsmobility 	startTime 	110.9
scalar RSUExampleScenario.node[46].veinsmobility 	totalTime 	339.1
scalar RSUExampleScenario.node[46].veinsmobility 	stopTime 	450
scalar RSUExampleScenario.node[46].veinsmobility 	minSpeed 	0
scalar RSUExampleScenario.node[46].veinsmobility 	maxSpeed 	13.999851047227
scalar RSUExampleScenario.node[46].veinsmobility 	totalDistance 	1561.8676700418
scalar RSUExampleScenario.node[46].veinsmobility 	totalCO2Emission 	553.14462194943
scalar RSUExampleScenario.node[47].appl 	meanClusterNodes 	0.5
scalar RSUExampleScenario.node[47].appl 	meanClusterHeadUtility 	16.712146697523
scalar RSUExampleScenario.node[47].appl 	NumberofCH 	0.054054054054054
scalar RSUExampleScenario.node[47].appl 	NumberofON 	0.83783783783784
scalar RSUExampleScenario.node[47].appl 	NumberofFN 	0.10810810810811
scalar RSUExampleScenario.node[47].veinsmobility 	startTime 	113.3
scalar RSUExampleScenario.node[47].veinsmobility 	totalTime 	336.7
scalar RSUExampleScenario.node[47].veinsmobility 	stopTime 	450
scalar RSUExampleScenario.node[47].veinsmobility 	minSpeed 	0
scalar RSUExampleScenario.node[47].veinsmobility 	maxSpeed 	13.999662126882
scalar RSUExampleScenario.node[47].veinsmobility 	totalDistance 	1527.6188264131
scalar RSUExampleScenario.node[47].veinsmobility 	totalCO2Emission 	546.50456948926
scalar RSUExampleScenario.node[48].appl 	meanClusterNodes 	3.8333333333333
scalar RSUExampleScenario.node[48].appl 	meanClusterHeadUtility 	5.071925967001
scalar RSUExampleScenario.node[48].appl 	NumberofCH 	0.16216216216216
scalar RSUExampleScenario.node[48].appl 	NumberofON 	0.64864864864865
scalar RSUExampleScenario.node[48].appl 	NumberofFN 	0.18918918918919
scalar RSUExampleScenario.node[48].veinsmobility 	startTime 	115.7
scalar RSUExampleScenario.node[48].veinsmobility 	totalTime 	334.3
scalar RSUExampleScenario.node[48].veinsmobility 	stopTime 	450
scalar RSUExampleScenario.node[48].veinsmobility 	minSpeed 	0
scalar RSUExampleScenario.node[48].veinsmobility 	maxSpeed 	13.99995022642
scalar RSUExampleScenario.node[48].veinsmobility 	totalDistance 	1495.6770936281
scalar RSUExampleScenario.node[48].veinsmobility 	totalCO2Emission 	540.81449088369
scalar RSUExampleScenario.node[49].appl 	meanClusterNodes 	8.75
scalar RSUExampleScenario.node[49].appl 	meanClusterHeadUtility 	8.5572379226229
scalar RSUExampleScenario.node[49].appl 	NumberofCH 	0.10810810810811
scalar RSUExampleScenario.node[49].appl 	NumberofON 	0.32432432432432
scalar RSUExampleScenario.node[49].appl 	NumberofFN 	0.56756756756757
scalar RSUExampleScenario.node[49].veinsmobility 	startTime 	118.1
scalar RSUExampleScenario.node[49].veinsmobility 	totalTime 	331.9
scalar RSUExampleScenario.node[49].veinsmobility 	stopTime 	450
scalar RSUExampleScenario.node[49].veinsmobility 	minSpeed 	0
scalar RSUExampleScenario.node[49].veinsmobility 	maxSpeed 	13.999885164148
scalar RSUExampleScenario.node[49].veinsmobility 	totalDistance 	1461.7668278995
scalar RSUExampleScenario.node[49].veinsmobility 	totalCO2Emission 	536.16306973298
scalar RSUExampleScenario.node[5].appl 	meanClusterNodes 	1.8333333333333
scalar RSUExampleScenario.node[5].appl 	meanClusterHeadUtility 	6.9700623832495
scalar RSUExampleScenario.node[5].appl 	NumberofCH 	0.16216216216216
scalar RSUExampleScenario.node[5].appl 	NumberofON 	0.51351351351351
scalar RSUExampleScenario.node[5].appl 	NumberofFN 	0.32432432432432
scalar RSUExampleScenario.node[5].veinsmobility 	startTime 	12.1
scalar RSUExampleScenario.node[5].veinsmobility 	totalTime 	437.9
scalar RSUExampleScenario.node[5].veinsmobility 	stopTime 	450
scalar RSUExampleScenario.node[5].veinsmobility 	minSpeed 	0
scalar RSUExampleScenario.node[5].veinsmobility 	maxSpeed 	13.999957565498
scalar RSUExampleScenario.node[5].veinsmobility 	totalDistance 	2917.2092841818
scalar RSUExampleScenario.node[5].veinsmobility 	totalCO2Emission 	785.48152389792
scalar RSUExampleScenario.node[50].appl 	meanClusterNodes 	3.5
scalar RSUExampleScenario.node[50].appl 	meanClusterHeadUtility 	8.2885060952439
scalar RSUExampleScenario.node[50].appl 	NumberofCH 	0.10810810810811
scalar RSUExampleScenario.node[50].appl 	NumberofON 	0.45945945945946
scalar RSUExampleScenario.node[50].appl 	NumberofFN 	0.43243243243243
scalar RSUExampleScenario.node[50].veinsmobility 	startTime 	120.6
scalar RSUExampleScenario.node[50].veinsmobility 	totalTime 	329.4
scalar RSUExampleScenario.node[50].veinsmobility 	stopTime 	450
scalar RSUExampleScenario.node[50].veinsmobility 	minSpeed 	0
scalar RSUExampleScenario.node[50].veinsmobility 	maxSpeed 	13.999979798058
scalar RSUExampleScenario.node[50].veinsmobility 	totalDistance 	1427.6872369998
scalar RSUExampleScenario.node[50].veinsmobility 	totalCO2Emission 	531.8811504584
scalar RSUExampleScenario.node[51].appl 	meanClusterNodes 	2
scalar RSUExampleScenario.node[51].appl 	meanClusterHeadUtility 	6.511997043322
scalar RSUExampleScenario.node[51].appl 	NumberofCH 	0.13513513513514
scalar RSUExampleScenario.node[51].appl 	NumberofON 	0.75675675675676
scalar RSUExampleScenario.node[51].appl 	NumberofFN 	0.10810810810811
scalar RSUExampleScenario.node[51].veinsmobility 	startTime 	123
scalar RSUExampleScenario.node[51].veinsmobility 	totalTime 	327
scalar RSUExampleScenario.node[51].veinsmobility 	stopTime 	450
scalar RSUExampleScenario.node[51].veinsmobility 	minSpeed 	0
scalar RSUExampleScenario.node[51].veinsmobility 	maxSpeed 	13.999992102932
scalar RSUExampleScenario.node[51].veinsmobility 	totalDistance 	1395.4011277479
scalar RSUExampleScenario.node[51].veinsmobility 	totalCO2Emission 	523.76410112812
scalar RSUExampleScenario.node[52].appl 	meanClusterNodes 	4.5
scalar RSUExampleScenario.node[52].appl 	meanClusterHeadUtility 	6.8179550883727
scalar RSUExampleScenario.node[52].appl 	NumberofCH 	0.16216216216216
scalar RSUExampleScenario.node[52].appl 	NumberofON 	0.67567567567568
scalar RSUExampleScenario.node[52].appl 	NumberofFN 	0.16216216216216
scalar RSUExampleScenario.node[52].veinsmobility 	startTime 	125.4
scalar RSUExampleScenario.node[52].veinsmobility 	totalTime 	324.6
scalar RSUExampleScenario.node[52].veinsmobility 	stopTime 	450
scalar RSUExampleScenario.node[52].veinsmobility 	minSpeed 	0
scalar RSUExampleScenario.node[52].veinsmobility 	maxSpeed 	13.999977291354
scalar RSUExampleScenario.node[52].veinsmobility 	totalDistance 	1359.2330723668
scalar RSUExampleScenario.node[52].veinsmobility 	totalCO2Emission 	521.09886135684
scalar RSUExampleScenario.node[53].appl 	meanClusterNodes 	3
scalar RSUExampleScenario.node[53].appl 	meanClusterHeadUtility 	17.870867910971
scalar RSUExampleScenario.node[53].appl 	NumberofCH 	0.054054054054054
scalar RSUExampleScenario.node[53].appl 	NumberofON 	0.64864864864865
scalar RSUExampleScenario.node[53].appl 	NumberofFN 	0.2972972972973
scalar RSUExampleScenario.node[53].veinsmobility 	startTime 	127.8
scalar RSUExampleScenario.node[53].veinsmobility 	totalTime 	322.2
scalar RSUExampleScenario.node[53].veinsmobility 	stopTime 	450
scalar RSUExampleScenario.node[53].veinsmobility 	minSpeed 	0
scalar RSUExampleScenario.node[53].veinsmobility 	maxSpeed 	13.999939763262
scalar RSUExampleScenario.node[53].veinsmobility 	totalDistance 	1326.8425294058
scalar RSUExampleScenario.node[53].veinsmobility 	totalCO2Emission 	512.42867393124
scalar RSUExampleScenario.node[54].appl 	meanClusterNodes 	4
scalar RSUExampleScenario.node[54].appl 	meanClusterHeadUtility 	9.0525481533642
scalar RSUExampleScenario.node[54].appl 	NumberofCH 	0.10810810810811
scalar RSUExampleScenario.node[54].appl 	NumberofON 	0.43243243243243
scalar RSUExampleScenario.node[54].appl 	NumberofFN 	0.45945945945946
scalar RSUExampleScenario.node[54].veinsmobility 	startTime 	130.2
scalar RSUExampleScenario.node[54].veinsmobility 	totalTime 	319.8
scalar RSUExampleScenario.node[54].veinsmobility 	stopTime 	450
scalar RSUExampleScenario.node[54].veinsmobility 	minSpeed 	0
scalar RSUExampleScenario.node[54].veinsmobility 	maxSpeed 	13.999697722455
scalar RSUExampleScenario.node[54].veinsmobility 	totalDistance 	1292.6846036134
scalar RSUExampleScenario.node[54].veinsmobility 	totalCO2Emission 	510.09888222237
scalar RSUExampleScenario.node[55].appl 	meanClusterNodes 	4.5
scalar RSUExampleScenario.node[55].appl 	meanClusterHeadUtility 	8.8333900393172
scalar RSUExampleScenario.node[55].appl 	NumberofCH 	0.10810810810811
scalar RSUExampleScenario.node[55].appl 	NumberofON 	0.62162162162162
scalar RSUExampleScenario.node[55].appl 	NumberofFN 	0.27027027027027
scalar RSUExampleScenario.node[55].veinsmobility 	startTime 	132.6
scalar RSUExampleScenario.node[55].veinsmobility 	totalTime 	317.4
scalar RSUExampleScenario.node[55].veinsmobility 	stopTime 	450
scalar RSUExampleScenario.node[55].veinsmobility 	minSpeed 	0
scalar RSUExampleScenario.node[55].veinsmobility 	maxSpeed 	13.999886626727
scalar RSUExampleScenario.node[55].veinsmobility 	totalDistance 	1260.0559768247
scalar RSUExampleScenario.node[55].veinsmobility 	totalCO2Emission 	502.35645787649
scalar RSUExampleScenario.node[56].appl 	meanClusterNodes 	8.75
scalar RSUExampleScenario.node[56].appl 	meanClusterHeadUtility 	8.4165992151571
scalar RSUExampleScenario.node[56].appl 	NumberofCH 	0.10810810810811
scalar RSUExampleScenario.node[56].appl 	NumberofON 	0.75675675675676
scalar RSUExampleScenario.node[56].appl 	NumberofFN 	0.13513513513514
scalar RSUExampleScenario.node[56].veinsmobility 	startTime 	135
scalar RSUExampleScenario.node[56].veinsmobility 	totalTime 	315
scalar RSUExampleScenario.node[56].veinsmobility 	stopTime 	450
scalar RSUExampleScenario.node[56].veinsmobility 	minSpeed 	0
scalar RSUExampleScenario.node[56].veinsmobility 	maxSpeed 	13.99993757637
scalar RSUExampleScenario.node[56].veinsmobility 	totalDistance 	1224.2412681181
scalar RSUExampleScenario.node[56].veinsmobility 	totalCO2Emission 	495.12342875378
scalar RSUExampleScenario.node[57].appl 	meanClusterNodes 	6
scalar RSUExampleScenario.node[57].appl 	meanClusterHeadUtility 	9.6013791575218
scalar RSUExampleScenario.node[57].appl 	NumberofCH 	0.10810810810811
scalar RSUExampleScenario.node[57].appl 	NumberofON 	0.86486486486486
scalar RSUExampleScenario.node[57].appl 	NumberofFN 	0.027027027027027
scalar RSUExampleScenario.node[57].veinsmobility 	startTime 	137.4
scalar RSUExampleScenario.node[57].veinsmobility 	totalTime 	312.6
scalar RSUExampleScenario.node[57].veinsmobility 	stopTime 	450
scalar RSUExampleScenario.node[57].veinsmobility 	minSpeed 	0
scalar RSUExampleScenario.node[57].veinsmobility 	maxSpeed 	13.999167425444
scalar RSUExampleScenario.node[57].veinsmobility 	totalDistance 	1190.5304645242
scalar RSUExampleScenario.node[57].veinsmobility 	totalCO2Emission 	491.66974829987
scalar RSUExampleScenario.node[58].appl 	meanClusterNodes 	3.5
scalar RSUExampleScenario.node[58].appl 	meanClusterHeadUtility 	5.1254986613279
scalar RSUExampleScenario.node[58].appl 	NumberofCH 	0.16216216216216
scalar RSUExampleScenario.node[58].appl 	NumberofON 	0.81081081081081
scalar RSUExampleScenario.node[58].appl 	NumberofFN 	0.027027027027027
scalar RSUExampleScenario.node[58].veinsmobility 	startTime 	139.8
scalar RSUExampleScenario.node[58].veinsmobility 	totalTime 	310.2
scalar RSUExampleScenario.node[58].veinsmobility 	stopTime 	450
scalar RSUExampleScenario.node[58].veinsmobility 	minSpeed 	0
scalar RSUExampleScenario.node[58].veinsmobility 	maxSpeed 	13.99991036512
scalar RSUExampleScenario.node[58].veinsmobility 	totalDistance 	1157.3014987752
scalar RSUExampleScenario.node[58].veinsmobility 	totalCO2Emission 	486.42394580082
scalar RSUExampleScenario.node[59].appl 	meanClusterNodes 	1.25
scalar RSUExampleScenario.node[59].appl 	meanClusterHeadUtility 	7.8567938437457
scalar RSUExampleScenario.node[59].appl 	NumberofCH 	0.10810810810811
scalar RSUExampleScenario.node[59].appl 	NumberofON 	0.83783783783784
scalar RSUExampleScenario.node[59].appl 	NumberofFN 	0.054054054054054
scalar RSUExampleScenario.node[59].veinsmobility 	startTime 	142.2
scalar RSUExampleScenario.node[59].veinsmobility 	totalTime 	307.8
scalar RSUExampleScenario.node[59].veinsmobility 	stopTime 	450
scalar RSUExampleScenario.node[59].veinsmobility 	minSpeed 	0
scalar RSUExampleScenario.node[59].veinsmobility 	maxSpeed 	13.999687283512
scalar RSUExampleScenario.node[59].veinsmobility 	totalDistance 	1122.9058173885
scalar RSUExampleScenario.node[59].veinsmobility 	totalCO2Emission 	478.90690134679
scalar RSUExampleScenario.node[6].appl 	meanClusterNodes 	6
scalar RSUExampleScenario.node[6].appl 	meanClusterHeadUtility 	18.185330335323
scalar RSUExampleScenario.node[6].appl 	NumberofCH 	0.054054054054054
scalar RSUExampleScenario.node[6].appl 	NumberofON 	0.43243243243243
scalar RSUExampleScenario.node[6].appl 	NumberofFN 	0.51351351351351
scalar RSUExampleScenario.node[6].veinsmobility 	startTime 	14.5
scalar RSUExampleScenario.node[6].veinsmobility 	totalTime 	435.5
scalar RSUExampleScenario.node[6].veinsmobility 	stopTime 	450
scalar RSUExampleScenario.node[6].veinsmobility 	minSpeed 	0
scalar RSUExampleScenario.node[6].veinsmobility 	maxSpeed 	13.999993830719
scalar RSUExampleScenario.node[6].veinsmobility 	totalDistance 	2900.5500908001
scalar RSUExampleScenario.node[6].veinsmobility 	totalCO2Emission 	777.24588791482
scalar RSUExampleScenario.node[60].appl 	meanClusterNodes 	4.5
scalar RSUExampleScenario.node[60].appl 	meanClusterHeadUtility 	9.7173304540968
scalar RSUExampleScenario.node[60].appl 	NumberofCH 	0.10810810810811
scalar RSUExampleScenario.node[60].appl 	NumberofON 	0.78378378378378
scalar RSUExampleScenario.node[60].appl 	NumberofFN 	0.10810810810811
scalar RSUExampleScenario.node[60].veinsmobility 	startTime 	144.7
scalar RSUExampleScenario.node[60].veinsmobility 	totalTime 	305.3
scalar RSUExampleScenario.node[60].veinsmobility 	stopTime 	450
scalar RSUExampleScenario.node[60].veinsmobility 	minSpeed 	0
scalar RSUExampleScenario.node[60].veinsmobility 	maxSpeed 	13.999652438858
scalar RSUExampleScenario.node[60].veinsmobility 	totalDistance 	1090.307013973
scalar RSUExampleScenario.node[60].veinsmobility 	totalCO2Emission 	474.52209968718
scalar RSUExampleScenario.node[61].appl 	meanClusterNodes 	3.5
scalar RSUExampleScenario.node[61].appl 	meanClusterHeadUtility 	17.896746648389
scalar RSUExampleScenario.node[61].appl 	NumberofCH 	0.054054054054054
scalar RSUExampleScenario.node[61].appl 	NumberofON 	0.45945945945946
scalar RSUExampleScenario.node[61].appl 	NumberofFN 	0.48648648648649
scalar RSUExampleScenario.node[61].veinsmobility 	startTime 	147.1
scalar RSUExampleScenario.node[61].veinsmobility 	totalTime 	302.9
scalar RSUExampleScenario.node[61].veinsmobility 	stopTime 	450
scalar RSUExampleScenario.node[61].veinsmobility 	minSpeed 	0
scalar RSUExampleScenario.node[61].veinsmobility 	maxSpeed 	13.999866083786
scalar RSUExampleScenario.node[61].veinsmobility 	totalDistance 	1057.5693094642
scalar RSUExampleScenario.node[61].veinsmobility 	totalCO2Emission 	464.85903282592
scalar RSUExampleScenario.node[62].appl 	meanClusterNodes 	3.75
scalar RSUExampleScenario.node[62].appl 	meanClusterHeadUtility 	8.48353510469
scalar RSUExampleScenario.node[62].appl 	NumberofCH 	0.10810810810811
scalar RSUExampleScenario.node[62].appl 	NumberofON 	0.67567567567568
scalar RSUExampleScenario.node[62].appl 	NumberofFN 	0.21621621621622
scalar RSUExampleScenario.node[62].veinsmobility 	startTime 	149.5
scalar RSUExampleScenario.node[62].veinsmobility 	totalTime 	300.5
scalar RSUExampleScenario.node[62].veinsmobility 	stopTime 	450
scalar RSUExampleScenario.node[62].veinsmobility 	minSpeed 	0
scalar RSUExampleScenario.node[62].veinsmobility 	maxSpeed 	13.999986034352
scalar RSUExampleScenario.node[62].veinsmobility 	totalDistance 	1023.5665106821
scalar RSUExampleScenario.node[62].veinsmobility 	totalCO2Emission 	462.64565678805
scalar RSUExampleScenario.node[63].appl 	meanClusterNodes 	3.2
scalar RSUExampleScenario.node[63].appl 	meanClusterHeadUtility 	6.9261895995009
scalar RSUExampleScenario.node[63].appl 	NumberofCH 	0.13513513513514
scalar RSUExampleScenario.node[63].appl 	NumberofON 	0.62162162162162
scalar RSUExampleScenario.node[63].appl 	NumberofFN 	0.24324324324324
scalar RSUExampleScenario.node[63].veinsmobility 	startTime 	151.9
scalar RSUExampleScenario.node[63].veinsmobility 	totalTime 	298.1
scalar RSUExampleScenario.node[63].veinsmobility 	stopTime 	450
scalar RSUExampleScenario.node[63].veinsmobility 	minSpeed 	0
scalar RSUExampleScenario.node[63].veinsmobility 	maxSpeed 	13.999494282771
scalar RSUExampleScenario.node[63].veinsmobility 	totalDistance 	985.42399677371
scalar RSUExampleScenario.node[63].veinsmobility 	totalCO2Emission 	449.95772687625
scalar RSUExampleScenario.node[64].appl 	meanClusterNodes 	6
scalar RSUExampleScenario.node[64].appl 	meanClusterHeadUtility 	15.530545589509
scalar RSUExampleScenario.node[64].appl 	NumberofCH 	0.054054054054054
scalar RSUExampleScenario.node[64].appl 	NumberofON 	0.67567567567568
scalar RSUExampleScenario.node[64].appl 	NumberofFN 	0.27027027027027
scalar RSUExampleScenario.node[64].veinsmobility 	startTime 	154.3
scalar RSUExampleScenario.node[64].veinsmobility 	totalTime 	295.7
scalar RSUExampleScenario.node[64].veinsmobility 	stopTime 	450
scalar RSUExampleScenario.node[64].veinsmobility 	minSpeed 	0
scalar RSUExampleScenario.node[64].veinsmobility 	maxSpeed 	13.999417149082
scalar RSUExampleScenario.node[64].veinsmobility 	totalDistance 	952.67684661251
scalar RSUExampleScenario.node[64].veinsmobility 	totalCO2Emission 	437.00683271095
scalar RSUExampleScenario.node[65].appl 	meanClusterNodes 	5
scalar RSUExampleScenario.node[65].appl 	meanClusterHeadUtility 	8.5360126107448
scalar RSUExampleScenario.node[65].appl 	NumberofCH 	0.10810810810811
scalar RSUExampleScenario.node[65].appl 	NumberofON 	0.56756756756757
scalar RSUExampleScenario.node[65].appl 	NumberofFN 	0.32432432432432
scalar RSUExampleScenario.node[65].veinsmobility 	startTime 	156.7
scalar RSUExampleScenario.node[65].veinsmobility 	totalTime 	293.3
scalar RSUExampleScenario.node[65].veinsmobility 	stopTime 	450
scalar RSUExampleScenario.node[65].veinsmobility 	minSpeed 	0
scalar RSUExampleScenario.node[65].veinsmobility 	maxSpeed 	13.999506688104
scalar RSUExampleScenario.node[65].veinsmobility 	totalDistance 	940.18073216921
scalar RSUExampleScenario.node[65].veinsmobility 	totalCO2Emission 	428.08452476123
scalar RSUExampleScenario.node[66].appl 	meanClusterNodes 	9.5
scalar RSUExampleScenario.node[66].appl 	meanClusterHeadUtility 	9.2261530493812
scalar RSUExampleScenario.node[66].appl 	NumberofCH 	0.10810810810811
scalar RSUExampleScenario.node[66].appl 	NumberofON 	0.37837837837838
scalar RSUExampleScenario.node[66].appl 	NumberofFN 	0.51351351351351
scalar RSUExampleScenario.node[66].veinsmobility 	startTime 	159.1
scalar RSUExampleScenario.node[66].veinsmobility 	totalTime 	290.9
scalar RSUExampleScenario.node[66].veinsmobility 	stopTime 	450
scalar RSUExampleScenario.node[66].veinsmobility 	minSpeed 	0
scalar RSUExampleScenario.node[66].veinsmobility 	maxSpeed 	13.999507892225
scalar RSUExampleScenario.node[66].veinsmobility 	totalDistance 	927.70678982647
scalar RSUExampleScenario.node[66].veinsmobility 	totalCO2Emission 	423.26147952829
scalar RSUExampleScenario.node[67].appl 	meanClusterNodes 	7.5
scalar RSUExampleScenario.node[67].appl 	meanClusterHeadUtility 	19.276233960618
scalar RSUExampleScenario.node[67].appl 	NumberofCH 	0.054054054054054
scalar RSUExampleScenario.node[67].appl 	NumberofON 	0.54054054054054
scalar RSUExampleScenario.node[67].appl 	NumberofFN 	0.40540540540541
scalar RSUExampleScenario.node[67].veinsmobility 	startTime 	161.5
scalar RSUExampleScenario.node[67].veinsmobility 	totalTime 	288.5
scalar RSUExampleScenario.node[67].veinsmobility 	stopTime 	450
scalar RSUExampleScenario.node[67].veinsmobility 	minSpeed 	0
scalar RSUExampleScenario.node[67].veinsmobility 	maxSpeed 	13.999355826541
scalar RSUExampleScenario.node[67].veinsmobility 	totalDistance 	912.35826820518
scalar RSUExampleScenario.node[67].veinsmobility 	totalCO2Emission 	421.95261157766
scalar RSUExampleScenario.node[68].appl 	meanClusterNodes 	8.25
scalar RSUExampleScenario.node[68].appl 	meanClusterHeadUtility 	8.6468471984583
scalar RSUExampleScenario.node[68].appl 	NumberofCH 	0.10810810810811
scalar RSUExampleScenario.node[68].appl 	NumberofON 	0.62162162162162
scalar RSUExampleScenario.node[68].appl 	NumberofFN 	0.27027027027027
scalar RSUExampleScenario.node[68].veinsmobility 	startTime 	163.9
scalar RSUExampleScenario.node[68].veinsmobility 	totalTime 	286.1
scalar RSUExampleScenario.node[68].veinsmobility 	stopTime 	450
scalar RSUExampleScenario.node[68].veinsmobility 	minSpeed 	0
scalar RSUExampleScenario.node[68].veinsmobility 	maxSpeed 	13.999670322544
scalar RSUExampleScenario.node[68].veinsmobility 	totalDistance 	892.08493416772
scalar RSUExampleScenario.node[68].veinsmobility 	totalCO2Emission 	418.23105263217
scalar RSUExampleScenario.node[69].appl 	meanClusterNodes 	5.75
scalar RSUExampleScenario.node[69].appl 	meanClusterHeadUtility 	8.5304088009599
scalar RSUExampleScenario.node[69].appl 	NumberofCH 	0.10810810810811
scalar RSUExampleScenario.node[69].appl 	NumberofON 	0.51351351351351
scalar RSUExampleScenario.node[69].appl 	NumberofFN 	0.37837837837838
scalar RSUExampleScenario.node[69].veinsmobility 	startTime 	166.3
scalar RSUExampleScenario.node[69].veinsmobility 	totalTime 	283.7
scalar RSUExampleScenario.node[69].veinsmobility 	stopTime 	450
scalar RSUExampleScenario.node[69].veinsmobility 	minSpeed 	0
scalar RSUExampleScenario.node[69].veinsmobility 	maxSpeed 	13.999409005905
scalar RSUExampleScenario.node[69].veinsmobility 	totalDistance 	858.69048988817
scalar RSUExampleScenario.node[69].veinsmobility 	totalCO2Emission 	412.17381042355
scalar RSUExampleScenario.node[7].appl 	meanClusterNodes 	2
scalar RSUExampleScenario.node[7].appl 	meanClusterHeadUtility 	16.182830417626
scalar RSUExampleScenario.node[7].appl 	NumberofCH 	0.054054054054054
scalar RSUExampleScenario.node[7].appl 	NumberofON 	0.64864864864865
scalar RSUExampleScenario.node[7].appl 	NumberofFN 	0.2972972972973
scalar RSUExampleScenario.node[7].veinsmobility 	startTime 	16.9
scalar RSUExampleScenario.node[7].veinsmobility 	totalTime 	433.1
scalar RSUExampleScenario.node[7].veinsmobility 	stopTime 	450
scalar RSUExampleScenario.node[7].veinsmobility 	minSpeed 	0
scalar RSUExampleScenario.node[7].veinsmobility 	maxSpeed 	13.999930452406
scalar RSUExampleScenario.node[7].veinsmobility 	totalDistance 	2888.3926776921
scalar RSUExampleScenario.node[7].veinsmobility 	totalCO2Emission 	775.90318137763
scalar RSUExampleScenario.node[70].appl 	meanClusterNodes 	3.6666666666667
scalar RSUExampleScenario.node[70].appl 	meanClusterHeadUtility 	5.7945270789443
scalar RSUExampleScenario.node[70].appl 	NumberofCH 	0.16216216216216
scalar RSUExampleScenario.node[70].appl 	NumberofON 	0.59459459459459
scalar RSUExampleScenario.node[70].appl 	NumberofFN 	0.24324324324324
scalar RSUExampleScenario.node[70].veinsmobility 	startTime 	168.8
scalar RSUExampleScenario.node[70].veinsmobility 	totalTime 	281.2
scalar RSUExampleScenario.node[70].veinsmobility 	stopTime 	450
scalar RSUExampleScenario.node[70].veinsmobility 	minSpeed 	0
scalar RSUExampleScenario.node[70].veinsmobility 	maxSpeed 	13.99993291392
scalar RSUExampleScenario.node[70].veinsmobility 	totalDistance 	824.37954524058
scalar RSUExampleScenario.node[70].veinsmobility 	totalCO2Emission 	408.07587972058
scalar RSUExampleScenario.node[71].appl 	meanClusterNodes 	3.6666666666667
scalar RSUExampleScenario.node[71].appl 	meanClusterHeadUtility 	11.273198452827
scalar RSUExampleScenario.node[71].appl 	NumberofCH 	0.081081081081081
scalar RSUExampleScenario.node[71].appl 	NumberofON 	0.62162162162162
scalar RSUExampleScenario.node[71].appl 	NumberofFN 	0.2972972972973
scalar RSUExampleScenario.node[71].veinsmobility 	startTime 	171.2
scalar RSUExampleScenario.node[71].veinsmobility 	totalTime 	278.8
scalar RSUExampleScenario.node[71].veinsmobility 	stopTime 	450
scalar RSUExampleScenario.node[71].veinsmobility 	minSpeed 	0
scalar RSUExampleScenario.node[71].veinsmobility 	maxSpeed 	13.99921109939
scalar RSUExampleScenario.node[71].veinsmobility 	totalDistance 	791.18957387694
scalar RSUExampleScenario.node[71].veinsmobility 	totalCO2Emission 	401.85511475577
scalar RSUExampleScenario.node[72].appl 	meanClusterNodes 	3
scalar RSUExampleScenario.node[72].appl 	meanClusterHeadUtility 	16.37532094247
scalar RSUExampleScenario.node[72].appl 	NumberofCH 	0.054054054054054
scalar RSUExampleScenario.node[72].appl 	NumberofON 	0.45945945945946
scalar RSUExampleScenario.node[72].appl 	NumberofFN 	0.48648648648649
scalar RSUExampleScenario.node[72].veinsmobility 	startTime 	173.6
scalar RSUExampleScenario.node[72].veinsmobility 	totalTime 	276.4
scalar RSUExampleScenario.node[72].veinsmobility 	stopTime 	450
scalar RSUExampleScenario.node[72].veinsmobility 	minSpeed 	0
scalar RSUExampleScenario.node[72].veinsmobility 	maxSpeed 	13.999855335625
scalar RSUExampleScenario.node[72].veinsmobility 	totalDistance 	757.9818297997
scalar RSUExampleScenario.node[72].veinsmobility 	totalCO2Emission 	397.97853271744
scalar RSUExampleScenario.node[73].appl 	meanClusterNodes 	0
scalar RSUExampleScenario.node[73].appl 	meanClusterHeadUtility 	0
scalar RSUExampleScenario.node[73].appl 	NumberofCH 	0.054054054054054
scalar RSUExampleScenario.node[73].appl 	NumberofON 	0.59459459459459
scalar RSUExampleScenario.node[73].appl 	NumberofFN 	0.35135135135135
scalar RSUExampleScenario.node[73].veinsmobility 	startTime 	176
scalar RSUExampleScenario.node[73].veinsmobility 	totalTime 	274
scalar RSUExampleScenario.node[73].veinsmobility 	stopTime 	450
scalar RSUExampleScenario.node[73].veinsmobility 	minSpeed 	0
scalar RSUExampleScenario.node[73].veinsmobility 	maxSpeed 	13.999963864386
scalar RSUExampleScenario.node[73].veinsmobility 	totalDistance 	725.27597548665
scalar RSUExampleScenario.node[73].veinsmobility 	totalCO2Emission 	392.64561342411
scalar RSUExampleScenario.node[74].appl 	meanClusterNodes 	4.5
scalar RSUExampleScenario.node[74].appl 	meanClusterHeadUtility 	8.9519362402727
scalar RSUExampleScenario.node[74].appl 	NumberofCH 	0.10810810810811
scalar RSUExampleScenario.node[74].appl 	NumberofON 	0.51351351351351
scalar RSUExampleScenario.node[74].appl 	NumberofFN 	0.37837837837838
scalar RSUExampleScenario.node[74].veinsmobility 	startTime 	178.4
scalar RSUExampleScenario.node[74].veinsmobility 	totalTime 	271.6
scalar RSUExampleScenario.node[74].veinsmobility 	stopTime 	450
scalar RSUExampleScenario.node[74].veinsmobility 	minSpeed 	0
scalar RSUExampleScenario.node[74].veinsmobility 	maxSpeed 	13.999978610433
scalar RSUExampleScenario.node[74].veinsmobility 	totalDistance 	690.24088097842
scalar RSUExampleScenario.node[74].veinsmobility 	totalCO2Emission 	385.50722938793
scalar RSUExampleScenario.node[75].appl 	meanClusterNodes 	4.5
scalar RSUExampleScenario.node[75].appl 	meanClusterHeadUtility 	8.5526809636756
scalar RSUExampleScenario.node[75].appl 	NumberofCH 	0.10810810810811
scalar RSUExampleScenario.node[75].appl 	NumberofON 	0.54054054054054
scalar RSUExampleScenario.node[75].appl 	NumberofFN 	0.35135135135135
scalar RSUExampleScenario.node[75].veinsmobility 	startTime 	180.8
scalar RSUExampleScenario.node[75].veinsmobility 	totalTime 	269.2
scalar RSUExampleScenario.node[75].veinsmobility 	stopTime 	450
scalar RSUExampleScenario.node[75].veinsmobility 	minSpeed 	0
scalar RSUExampleScenario.node[75].veinsmobility 	maxSpeed 	13.998594992887
scalar RSUExampleScenario.node[75].veinsmobility 	totalDistance 	658.20484891071
scalar RSUExampleScenario.node[75].veinsmobility 	totalCO2Emission 	379.62433781844
scalar RSUExampleScenario.node[76].appl 	meanClusterNodes 	2.5
scalar RSUExampleScenario.node[76].appl 	meanClusterHeadUtility 	8.9177355919878
scalar RSUExampleScenario.node[76].appl 	NumberofCH 	0.10810810810811
scalar RSUExampleScenario.node[76].appl 	NumberofON 	0.78378378378378
scalar RSUExampleScenario.node[76].appl 	NumberofFN 	0.10810810810811
scalar RSUExampleScenario.node[76].veinsmobility 	startTime 	183.2
scalar RSUExampleScenario.node[76].veinsmobility 	totalTime 	266.8
scalar RSUExampleScenario.node[76].veinsmobility 	stopTime 	450
scalar RSUExampleScenario.node[76].veinsmobility 	minSpeed 	0
scalar RSUExampleScenario.node[76].veinsmobility 	maxSpeed 	13.997705389485
scalar RSUExampleScenario.node[76].veinsmobility 	totalDistance 	623.98549494211
scalar RSUExampleScenario.node[76].veinsmobility 	totalCO2Emission 	373.1386977
scalar RSUExampleScenario.node[77].appl 	meanClusterNodes 	2.25
scalar RSUExampleScenario.node[77].appl 	meanClusterHeadUtility 	7.9552303770109
scalar RSUExampleScenario.node[77].appl 	NumberofCH 	0.10810810810811
scalar RSUExampleScenario.node[77].appl 	NumberofON 	0.67567567567568
scalar RSUExampleScenario.node[77].appl 	NumberofFN 	0.21621621621622
scalar RSUExampleScenario.node[77].veinsmobility 	startTime 	185.6
scalar RSUExampleScenario.node[77].veinsmobility 	totalTime 	264.4
scalar RSUExampleScenario.node[77].veinsmobility 	stopTime 	450
scalar RSUExampleScenario.node[77].veinsmobility 	minSpeed 	0
scalar RSUExampleScenario.node[77].veinsmobility 	maxSpeed 	13.998917809529
scalar RSUExampleScenario.node[77].veinsmobility 	totalDistance 	590.11728130634
scalar RSUExampleScenario.node[77].veinsmobility 	totalCO2Emission 	367.60760336525
scalar RSUExampleScenario.node[78].appl 	meanClusterNodes 	8.25
scalar RSUExampleScenario.node[78].appl 	meanClusterHeadUtility 	8.8121595358804
scalar RSUExampleScenario.node[78].appl 	NumberofCH 	0.10810810810811
scalar RSUExampleScenario.node[78].appl 	NumberofON 	0.27027027027027
scalar RSUExampleScenario.node[78].appl 	NumberofFN 	0.62162162162162
scalar RSUExampleScenario.node[78].veinsmobility 	startTime 	188
scalar RSUExampleScenario.node[78].veinsmobility 	totalTime 	262
scalar RSUExampleScenario.node[78].veinsmobility 	stopTime 	450
scalar RSUExampleScenario.node[78].veinsmobility 	minSpeed 	0
scalar RSUExampleScenario.node[78].veinsmobility 	maxSpeed 	13.998312952395
scalar RSUExampleScenario.node[78].veinsmobility 	totalDistance 	556.19142426595
scalar RSUExampleScenario.node[78].veinsmobility 	totalCO2Emission 	362.09312548324
scalar RSUExampleScenario.node[79].appl 	meanClusterNodes 	7
scalar RSUExampleScenario.node[79].appl 	meanClusterHeadUtility 	5.6665896020455
scalar RSUExampleScenario.node[79].appl 	NumberofCH 	0.16216216216216
scalar RSUExampleScenario.node[79].appl 	NumberofON 	0.35135135135135
scalar RSUExampleScenario.node[79].appl 	NumberofFN 	0.48648648648649
scalar RSUExampleScenario.node[79].veinsmobility 	startTime 	190.4
scalar RSUExampleScenario.node[79].veinsmobility 	totalTime 	259.6
scalar RSUExampleScenario.node[79].veinsmobility 	stopTime 	450
scalar RSUExampleScenario.node[79].veinsmobility 	minSpeed 	0
scalar RSUExampleScenario.node[79].veinsmobility 	maxSpeed 	13.999594464167
scalar RSUExampleScenario.node[79].veinsmobility 	totalDistance 	522.25778782165
scalar RSUExampleScenario.node[79].veinsmobility 	totalCO2Emission 	356.03277951343
scalar RSUExampleScenario.node[8].appl 	meanClusterNodes 	5.25
scalar RSUExampleScenario.node[8].appl 	meanClusterHeadUtility 	9.3824305071585
scalar RSUExampleScenario.node[8].appl 	NumberofCH 	0.10810810810811
scalar RSUExampleScenario.node[8].appl 	NumberofON 	0.27027027027027
scalar RSUExampleScenario.node[8].appl 	NumberofFN 	0.62162162162162
scalar RSUExampleScenario.node[8].veinsmobility 	startTime 	19.3
scalar RSUExampleScenario.node[8].veinsmobility 	totalTime 	430.7
scalar RSUExampleScenario.node[8].veinsmobility 	stopTime 	450
scalar RSUExampleScenario.node[8].veinsmobility 	minSpeed 	0
scalar RSUExampleScenario.node[8].veinsmobility 	maxSpeed 	13.99999426685
scalar RSUExampleScenario.node[8].veinsmobility 	totalDistance 	2855.5759512226
scalar RSUExampleScenario.node[8].veinsmobility 	totalCO2Emission 	770.95788772386
scalar RSUExampleScenario.node[80].appl 	meanClusterNodes 	6.75
scalar RSUExampleScenario.node[80].appl 	meanClusterHeadUtility 	10.306044140557
scalar RSUExampleScenario.node[80].appl 	NumberofCH 	0.10810810810811
scalar RSUExampleScenario.node[80].appl 	NumberofON 	0.32432432432432
scalar RSUExampleScenario.node[80].appl 	NumberofFN 	0.56756756756757
scalar RSUExampleScenario.node[80].veinsmobility 	startTime 	192.9
scalar RSUExampleScenario.node[80].veinsmobility 	totalTime 	257.1
scalar RSUExampleScenario.node[80].veinsmobility 	stopTime 	450
scalar RSUExampleScenario.node[80].veinsmobility 	minSpeed 	0
scalar RSUExampleScenario.node[80].veinsmobility 	maxSpeed 	13.998027917703
scalar RSUExampleScenario.node[80].veinsmobility 	totalDistance 	488.56405283202
scalar RSUExampleScenario.node[80].veinsmobility 	totalCO2Emission 	350.3444233046
scalar RSUExampleScenario.node[81].appl 	meanClusterNodes 	0
scalar RSUExampleScenario.node[81].appl 	meanClusterHeadUtility 	0
scalar RSUExampleScenario.node[81].appl 	NumberofCH 	0.054054054054054
scalar RSUExampleScenario.node[81].appl 	NumberofON 	0.24324324324324
scalar RSUExampleScenario.node[81].appl 	NumberofFN 	0.7027027027027
scalar RSUExampleScenario.node[81].veinsmobility 	startTime 	195.3
scalar RSUExampleScenario.node[81].veinsmobility 	totalTime 	254.7
scalar RSUExampleScenario.node[81].veinsmobility 	stopTime 	450
scalar RSUExampleScenario.node[81].veinsmobility 	minSpeed 	0
scalar RSUExampleScenario.node[81].veinsmobility 	maxSpeed 	13.999604695805
scalar RSUExampleScenario.node[81].veinsmobility 	totalDistance 	455.11742764338
scalar RSUExampleScenario.node[81].veinsmobility 	totalCO2Emission 	344.8882982755
scalar RSUExampleScenario.node[82].appl 	meanClusterNodes 	1
scalar RSUExampleScenario.node[82].appl 	meanClusterHeadUtility 	19.224143629242
scalar RSUExampleScenario.node[82].appl 	NumberofCH 	0.054054054054054
scalar RSUExampleScenario.node[82].appl 	NumberofON 	0.7027027027027
scalar RSUExampleScenario.node[82].appl 	NumberofFN 	0.24324324324324
scalar RSUExampleScenario.node[82].veinsmobility 	startTime 	197.7
scalar RSUExampleScenario.node[82].veinsmobility 	totalTime 	252.3
scalar RSUExampleScenario.node[82].veinsmobility 	stopTime 	450
scalar RSUExampleScenario.node[82].veinsmobility 	minSpeed 	0
scalar RSUExampleScenario.node[82].veinsmobility 	maxSpeed 	13.998660717513
scalar RSUExampleScenario.node[82].veinsmobility 	totalDistance 	422.67471527403
scalar RSUExampleScenario.node[82].veinsmobility 	totalCO2Emission 	339.56226104019
scalar RSUExampleScenario.node[83].appl 	meanClusterNodes 	0.8
scalar RSUExampleScenario.node[83].appl 	meanClusterHeadUtility 	6.94555827298
scalar RSUExampleScenario.node[83].appl 	NumberofCH 	0.13513513513514
scalar RSUExampleScenario.node[83].appl 	NumberofON 	0.59459459459459
scalar RSUExampleScenario.node[83].appl 	NumberofFN 	0.27027027027027
scalar RSUExampleScenario.node[83].veinsmobility 	startTime 	200.1
scalar RSUExampleScenario.node[83].veinsmobility 	totalTime 	249.9
scalar RSUExampleScenario.node[83].veinsmobility 	stopTime 	450
scalar RSUExampleScenario.node[83].veinsmobility 	minSpeed 	0
scalar RSUExampleScenario.node[83].veinsmobility 	maxSpeed 	13.999271707607
scalar RSUExampleScenario.node[83].veinsmobility 	totalDistance 	388.78318607049
scalar RSUExampleScenario.node[83].veinsmobility 	totalCO2Emission 	334.41102113937
scalar RSUExampleScenario.node[84].appl 	meanClusterNodes 	2.25
scalar RSUExampleScenario.node[84].appl 	meanClusterHeadUtility 	8.4189814304842
scalar RSUExampleScenario.node[84].appl 	NumberofCH 	0.10810810810811
scalar RSUExampleScenario.node[84].appl 	NumberofON 	0.62162162162162
scalar RSUExampleScenario.node[84].appl 	NumberofFN 	0.27027027027027
scalar RSUExampleScenario.node[84].veinsmobility 	startTime 	202.5
scalar RSUExampleScenario.node[84].veinsmobility 	totalTime 	247.5
scalar RSUExampleScenario.node[84].veinsmobility 	stopTime 	450
scalar RSUExampleScenario.node[84].veinsmobility 	minSpeed 	0
scalar RSUExampleScenario.node[84].veinsmobility 	maxSpeed 	13.999014520398
scalar RSUExampleScenario.node[84].veinsmobility 	totalDistance 	355.79772694412
scalar RSUExampleScenario.node[84].veinsmobility 	totalCO2Emission 	328.24957425234
scalar RSUExampleScenario.node[85].appl 	meanClusterNodes 	2
scalar RSUExampleScenario.node[85].appl 	meanClusterHeadUtility 	17.659227839361
scalar RSUExampleScenario.node[85].appl 	NumberofCH 	0.054054054054054
scalar RSUExampleScenario.node[85].appl 	NumberofON 	0.59459459459459
scalar RSUExampleScenario.node[85].appl 	NumberofFN 	0.35135135135135
scalar RSUExampleScenario.node[85].veinsmobility 	startTime 	204.9
scalar RSUExampleScenario.node[85].veinsmobility 	totalTime 	245.1
scalar RSUExampleScenario.node[85].veinsmobility 	stopTime 	450
scalar RSUExampleScenario.node[85].veinsmobility 	minSpeed 	0
scalar RSUExampleScenario.node[85].veinsmobility 	maxSpeed 	13.979498671035
scalar RSUExampleScenario.node[85].veinsmobility 	totalDistance 	321.39631732145
scalar RSUExampleScenario.node[85].veinsmobility 	totalCO2Emission 	321.38324947945
scalar RSUExampleScenario.node[86].appl 	meanClusterNodes 	7.75
scalar RSUExampleScenario.node[86].appl 	meanClusterHeadUtility 	9.2980570050915
scalar RSUExampleScenario.node[86].appl 	NumberofCH 	0.10810810810811
scalar RSUExampleScenario.node[86].appl 	NumberofON 	0.51351351351351
scalar RSUExampleScenario.node[86].appl 	NumberofFN 	0.37837837837838
scalar RSUExampleScenario.node[86].veinsmobility 	startTime 	207.3
scalar RSUExampleScenario.node[86].veinsmobility 	totalTime 	242.7
scalar RSUExampleScenario.node[86].veinsmobility 	stopTime 	450
scalar RSUExampleScenario.node[86].veinsmobility 	minSpeed 	0
scalar RSUExampleScenario.node[86].veinsmobility 	maxSpeed 	13.783354379292
scalar RSUExampleScenario.node[86].veinsmobility 	totalDistance 	288.0175655881
scalar RSUExampleScenario.node[86].veinsmobility 	totalCO2Emiss