version 2
run statisticLeach-317-20150323-06:45:19-8896
attr c 21
attr configname statisticLeach
attr datetime 20150323-06:45:19
attr experiment statisticLeach
attr inifile omnetpp.ini
attr iterationvars "$p=1/15, $c=21"
attr iterationvars2 "$p=1/15, $c=21, $repetition=7"
attr measurement "$p=1/15, $c=21"
attr network RSUExampleScenario
attr p 1/15
attr processid 8896
attr repetition 7
attr replication #7
attr resultdir results
attr runnumber 317
attr seedset 317

scalar . 	c 	21
scalar RSUExampleScenario.node[0].appl 	meanClusterNodes 	0
scalar RSUExampleScenario.node[0].appl 	meanClusterHeadUtility 	0
scalar RSUExampleScenario.node[0].appl 	NumberofCH 	0.054054054054054
scalar RSUExampleScenario.node[0].appl 	NumberofON 	0.37837837837838
scalar RSUExampleScenario.node[0].appl 	NumberofFN 	0.56756756756757
scalar RSUExampleScenario.node[0].veinsmobility 	startTime 	0.1
scalar RSUExampleScenario.node[0].veinsmobility 	totalTime 	449.9
scalar RSUExampleScenario.node[0].veinsmobility 	stopTime 	450
scalar RSUExampleScenario.node[0].veinsmobility 	minSpeed 	0
scalar RSUExampleScenario.node[0].veinsmobility 	maxSpeed 	13.999999597829
scalar RSUExampleScenario.node[0].veinsmobility 	totalDistance 	3133.9897115685
scalar RSUExampleScenario.node[0].veinsmobility 	totalCO2Emission 	843.1495161607
scalar RSUExampleScenario.node[1].appl 	meanClusterNodes 	3.5
scalar RSUExampleScenario.node[1].appl 	meanClusterHeadUtility 	19.599556961982
scalar RSUExampleScenario.node[1].appl 	NumberofCH 	0.054054054054054
scalar RSUExampleScenario.node[1].appl 	NumberofON 	0.32432432432432
scalar RSUExampleScenario.node[1].appl 	NumberofFN 	0.62162162162162
scalar RSUExampleScenario.node[1].veinsmobility 	startTime 	2.5
scalar RSUExampleScenario.node[1].veinsmobility 	totalTime 	447.5
scalar RSUExampleScenario.node[1].veinsmobility 	stopTime 	450
scalar RSUExampleScenario.node[1].veinsmobility 	minSpeed 	0
scalar RSUExampleScenario.node[1].veinsmobility 	maxSpeed 	13.99988309412
scalar RSUExampleScenario.node[1].veinsmobility 	totalDistance 	3078.5549407606
scalar RSUExampleScenario.node[1].veinsmobility 	totalCO2Emission 	829.65811732995
scalar RSUExampleScenario.node[10].appl 	meanClusterNodes 	0
scalar RSUExampleScenario.node[10].appl 	meanClusterHeadUtility 	0
scalar RSUExampleScenario.node[10].appl 	NumberofCH 	0
scalar RSUExampleScenario.node[10].appl 	NumberofON 	0.43243243243243
scalar RSUExampleScenario.node[10].appl 	NumberofFN 	0.56756756756757
scalar RSUExampleScenario.node[10].veinsmobility 	startTime 	24.2
scalar RSUExampleScenario.node[10].veinsmobility 	totalTime 	425.8
scalar RSUExampleScenario.node[10].veinsmobility 	stopTime 	450
scalar RSUExampleScenario.node[10].veinsmobility 	minSpeed 	0
scalar RSUExampleScenario.node[10].veinsmobility 	maxSpeed 	13.999874596384
scalar RSUExampleScenario.node[10].veinsmobility 	totalDistance 	2795.1738326965
scalar RSUExampleScenario.node[10].veinsmobility 	totalCO2Emission 	756.97315823455
scalar RSUExampleScenario.node[11].appl 	meanClusterNodes 	4.5
scalar RSUExampleScenario.node[11].appl 	meanClusterHeadUtility 	18.411979295859
scalar RSUExampleScenario.node[11].appl 	NumberofCH 	0.054054054054054
scalar RSUExampleScenario.node[11].appl 	NumberofON 	0.59459459459459
scalar RSUExampleScenario.node[11].appl 	NumberofFN 	0.35135135135135
scalar RSUExampleScenario.node[11].veinsmobility 	startTime 	26.6
scalar RSUExampleScenario.node[11].veinsmobility 	totalTime 	423.4
scalar RSUExampleScenario.node[11].veinsmobility 	stopTime 	450
scalar RSUExampleScenario.node[11].veinsmobility 	minSpeed 	0
scalar RSUExampleScenario.node[11].veinsmobility 	maxSpeed 	13.999987014339
scalar RSUExampleScenario.node[11].veinsmobility 	totalDistance 	2754.2448216035
scalar RSUExampleScenario.node[11].veinsmobility 	totalCO2Emission 	753.82209547414
scalar RSUExampleScenario.node[12].appl 	meanClusterNodes 	6.3333333333333
scalar RSUExampleScenario.node[12].appl 	meanClusterHeadUtility 	11.72498137067
scalar RSUExampleScenario.node[12].appl 	NumberofCH 	0.081081081081081
scalar RSUExampleScenario.node[12].appl 	NumberofON 	0.35135135135135
scalar RSUExampleScenario.node[12].appl 	NumberofFN 	0.56756756756757
scalar RSUExampleScenario.node[12].veinsmobility 	startTime 	29
scalar RSUExampleScenario.node[12].veinsmobility 	totalTime 	421
scalar RSUExampleScenario.node[12].veinsmobility 	stopTime 	450
scalar RSUExampleScenario.node[12].veinsmobility 	minSpeed 	0
scalar RSUExampleScenario.node[12].veinsmobility 	maxSpeed 	13.999880359226
scalar RSUExampleScenario.node[12].veinsmobility 	totalDistance 	2723.3986735743
scalar RSUExampleScenario.node[12].veinsmobility 	totalCO2Emission 	745.40710570358
scalar RSUExampleScenario.node[13].appl 	meanClusterNodes 	6.5
scalar RSUExampleScenario.node[13].appl 	meanClusterHeadUtility 	8.2842309783925
scalar RSUExampleScenario.node[13].appl 	NumberofCH 	0.10810810810811
scalar RSUExampleScenario.node[13].appl 	NumberofON 	0.48648648648649
scalar RSUExampleScenario.node[13].appl 	NumberofFN 	0.40540540540541
scalar RSUExampleScenario.node[13].veinsmobility 	startTime 	31.4
scalar RSUExampleScenario.node[13].veinsmobility 	totalTime 	418.6
scalar RSUExampleScenario.node[13].veinsmobility 	stopTime 	450
scalar RSUExampleScenario.node[13].veinsmobility 	minSpeed 	0
scalar RSUExampleScenario.node[13].veinsmobility 	maxSpeed 	13.999875120171
scalar RSUExampleScenario.node[13].veinsmobility 	totalDistance 	2680.6627987155
scalar RSUExampleScenario.node[13].veinsmobility 	totalCO2Emission 	741.24373526867
scalar RSUExampleScenario.node[14].appl 	meanClusterNodes 	10.5
scalar RSUExampleScenario.node[14].appl 	meanClusterHeadUtility 	17.289110991702
scalar RSUExampleScenario.node[14].appl 	NumberofCH 	0.054054054054054
scalar RSUExampleScenario.node[14].appl 	NumberofON 	0.21621621621622
scalar RSUExampleScenario.node[14].appl 	NumberofFN 	0.72972972972973
scalar RSUExampleScenario.node[14].veinsmobility 	startTime 	33.8
scalar RSUExampleScenario.node[14].veinsmobility 	totalTime 	416.2
scalar RSUExampleScenario.node[14].veinsmobility 	stopTime 	450
scalar RSUExampleScenario.node[14].veinsmobility 	minSpeed 	0
scalar RSUExampleScenario.node[14].veinsmobility 	maxSpeed 	13.999868123
scalar RSUExampleScenario.node[14].veinsmobility 	totalDistance 	2653.8756330936
scalar RSUExampleScenario.node[14].veinsmobility 	totalCO2Emission 	738.36040009473
scalar RSUExampleScenario.node[15].appl 	meanClusterNodes 	10
scalar RSUExampleScenario.node[15].appl 	meanClusterHeadUtility 	11.156016524597
scalar RSUExampleScenario.node[15].appl 	NumberofCH 	0.081081081081081
scalar RSUExampleScenario.node[15].appl 	NumberofON 	0.32432432432432
scalar RSUExampleScenario.node[15].appl 	NumberofFN 	0.59459459459459
scalar RSUExampleScenario.node[15].veinsmobility 	startTime 	36.2
scalar RSUExampleScenario.node[15].veinsmobility 	totalTime 	413.8
scalar RSUExampleScenario.node[15].veinsmobility 	stopTime 	450
scalar RSUExampleScenario.node[15].veinsmobility 	minSpeed 	0
scalar RSUExampleScenario.node[15].veinsmobility 	maxSpeed 	13.999844524476
scalar RSUExampleScenario.node[15].veinsmobility 	totalDistance 	2614.4997374625
scalar RSUExampleScenario.node[15].veinsmobility 	totalCO2Emission 	730.29810170809
scalar RSUExampleScenario.node[16].appl 	meanClusterNodes 	1.75
scalar RSUExampleScenario.node[16].appl 	meanClusterHeadUtility 	8.7536149563972
scalar RSUExampleScenario.node[16].appl 	NumberofCH 	0.10810810810811
scalar RSUExampleScenario.node[16].appl 	NumberofON 	0.67567567567568
scalar RSUExampleScenario.node[16].appl 	NumberofFN 	0.21621621621622
scalar RSUExampleScenario.node[16].veinsmobility 	startTime 	38.6
scalar RSUExampleScenario.node[16].veinsmobility 	totalTime 	411.4
scalar RSUExampleScenario.node[16].veinsmobility 	stopTime 	450
scalar RSUExampleScenario.node[16].veinsmobility 	minSpeed 	0
scalar RSUExampleScenario.node[16].veinsmobility 	maxSpeed 	13.999830397167
scalar RSUExampleScenario.node[16].veinsmobility 	totalDistance 	2582.6691034761
scalar RSUExampleScenario.node[16].veinsmobility 	totalCO2Emission 	723.56526780103
scalar RSUExampleScenario.node[17].appl 	meanClusterNodes 	4
scalar RSUExampleScenario.node[17].appl 	meanClusterHeadUtility 	16.9565636513
scalar RSUExampleScenario.node[17].appl 	NumberofCH 	0.054054054054054
scalar RSUExampleScenario.node[17].appl 	NumberofON 	0.7027027027027
scalar RSUExampleScenario.node[17].appl 	NumberofFN 	0.24324324324324
scalar RSUExampleScenario.node[17].veinsmobility 	startTime 	41
scalar RSUExampleScenario.node[17].veinsmobility 	totalTime 	409
scalar RSUExampleScenario.node[17].veinsmobility 	stopTime 	450
scalar RSUExampleScenario.node[17].veinsmobility 	minSpeed 	0
scalar RSUExampleScenario.node[17].veinsmobility 	maxSpeed 	13.999763844772
scalar RSUExampleScenario.node[17].veinsmobility 	totalDistance 	2539.6875754136
scalar RSUExampleScenario.node[17].veinsmobility 	totalCO2Emission 	716.94562388996
scalar RSUExampleScenario.node[18].appl 	meanClusterNodes 	2.5
scalar RSUExampleScenario.node[18].appl 	meanClusterHeadUtility 	16.378047792088
scalar RSUExampleScenario.node[18].appl 	NumberofCH 	0.054054054054054
scalar RSUExampleScenario.node[18].appl 	NumberofON 	0.48648648648649
scalar RSUExampleScenario.node[18].appl 	NumberofFN 	0.45945945945946
scalar RSUExampleScenario.node[18].veinsmobility 	startTime 	43.4
scalar RSUExampleScenario.node[18].veinsmobility 	totalTime 	406.6
scalar RSUExampleScenario.node[18].veinsmobility 	stopTime 	450
scalar RSUExampleScenario.node[18].veinsmobility 	minSpeed 	0
scalar RSUExampleScenario.node[18].veinsmobility 	maxSpeed 	13.99995054048
scalar RSUExampleScenario.node[18].veinsmobility 	totalDistance 	2510.037559928
scalar RSUExampleScenario.node[18].veinsmobility 	totalCO2Emission 	710.94716780569
scalar RSUExampleScenario.node[19].appl 	meanClusterNodes 	0
scalar RSUExampleScenario.node[19].appl 	meanClusterHeadUtility 	0
scalar RSUExampleScenario.node[19].appl 	NumberofCH 	0.054054054054054
scalar RSUExampleScenario.node[19].appl 	NumberofON 	0
scalar RSUExampleScenario.node[19].appl 	NumberofFN 	0.94594594594595
scalar RSUExampleScenario.node[19].veinsmobility 	startTime 	45.8
scalar RSUExampleScenario.node[19].veinsmobility 	totalTime 	404.2
scalar RSUExampleScenario.node[19].veinsmobility 	stopTime 	450
scalar RSUExampleScenario.node[19].veinsmobility 	minSpeed 	0
scalar RSUExampleScenario.node[19].veinsmobility 	maxSpeed 	13.999938091622
scalar RSUExampleScenario.node[19].veinsmobility 	totalDistance 	2470.500254817
scalar RSUExampleScenario.node[19].veinsmobility 	totalCO2Emission 	708.31609049927
scalar RSUExampleScenario.node[2].appl 	meanClusterNodes 	3.75
scalar RSUExampleScenario.node[2].appl 	meanClusterHeadUtility 	8.8575937795961
scalar RSUExampleScenario.node[2].appl 	NumberofCH 	0.10810810810811
scalar RSUExampleScenario.node[2].appl 	NumberofON 	0.21621621621622
scalar RSUExampleScenario.node[2].appl 	NumberofFN 	0.67567567567568
scalar RSUExampleScenario.node[2].veinsmobility 	startTime 	4.9
scalar RSUExampleScenario.node[2].veinsmobility 	totalTime 	445.1
scalar RSUExampleScenario.node[2].veinsmobility 	stopTime 	450
scalar RSUExampleScenario.node[2].veinsmobility 	minSpeed 	0
scalar RSUExampleScenario.node[2].veinsmobility 	maxSpeed 	13.999951945308
scalar RSUExampleScenario.node[2].veinsmobility 	totalDistance 	3038.3071690859
scalar RSUExampleScenario.node[2].veinsmobility 	totalCO2Emission 	822.15485312979
scalar RSUExampleScenario.node[20].appl 	meanClusterNodes 	0
scalar RSUExampleScenario.node[20].appl 	meanClusterHeadUtility 	0
scalar RSUExampleScenario.node[20].appl 	NumberofCH 	0
scalar RSUExampleScenario.node[20].appl 	NumberofON 	0.62162162162162
scalar RSUExampleScenario.node[20].appl 	NumberofFN 	0.37837837837838
scalar RSUExampleScenario.node[20].veinsmobility 	startTime 	48.3
scalar RSUExampleScenario.node[20].veinsmobility 	totalTime 	401.7
scalar RSUExampleScenario.node[20].veinsmobility 	stopTime 	450
scalar RSUExampleScenario.node[20].veinsmobility 	minSpeed 	0
scalar RSUExampleScenario.node[20].veinsmobility 	maxSpeed 	13.999936890982
scalar RSUExampleScenario.node[20].veinsmobility 	totalDistance 	2441.0250234783
scalar RSUExampleScenario.node[20].veinsmobility 	totalCO2Emission 	704.28290438655
scalar RSUExampleScenario.node[21].appl 	meanClusterNodes 	4.5
scalar RSUExampleScenario.node[21].appl 	meanClusterHeadUtility 	17.782510158552
scalar RSUExampleScenario.node[21].appl 	NumberofCH 	0.054054054054054
scalar RSUExampleScenario.node[21].appl 	NumberofON 	0.67567567567568
scalar RSUExampleScenario.node[21].appl 	NumberofFN 	0.27027027027027
scalar RSUExampleScenario.node[21].veinsmobility 	startTime 	50.7
scalar RSUExampleScenario.node[21].veinsmobility 	totalTime 	399.3
scalar RSUExampleScenario.node[21].veinsmobility 	stopTime 	450
scalar RSUExampleScenario.node[21].veinsmobility 	minSpeed 	0
scalar RSUExampleScenario.node[21].veinsmobility 	maxSpeed 	13.999848659567
scalar RSUExampleScenario.node[21].veinsmobility 	totalDistance 	2402.092936714
scalar RSUExampleScenario.node[21].veinsmobility 	totalCO2Emission 	694.88443638414
scalar RSUExampleScenario.node[22].appl 	meanClusterNodes 	7.5
scalar RSUExampleScenario.node[22].appl 	meanClusterHeadUtility 	8.6136297276323
scalar RSUExampleScenario.node[22].appl 	NumberofCH 	0.10810810810811
scalar RSUExampleScenario.node[22].appl 	NumberofON 	0.35135135135135
scalar RSUExampleScenario.node[22].appl 	NumberofFN 	0.54054054054054
scalar RSUExampleScenario.node[22].veinsmobility 	startTime 	53.1
scalar RSUExampleScenario.node[22].veinsmobility 	totalTime 	396.9
scalar RSUExampleScenario.node[22].veinsmobility 	stopTime 	450
scalar RSUExampleScenario.node[22].veinsmobility 	minSpeed 	0
scalar RSUExampleScenario.node[22].veinsmobility 	maxSpeed 	13.999833102913
scalar RSUExampleScenario.node[22].veinsmobility 	totalDistance 	2372.7852328399
scalar RSUExampleScenario.node[22].veinsmobility 	totalCO2Emission 	689.23245170302
scalar RSUExampleScenario.node[23].appl 	meanClusterNodes 	0
scalar RSUExampleScenario.node[23].appl 	meanClusterHeadUtility 	0
scalar RSUExampleScenario.node[23].appl 	NumberofCH 	0
scalar RSUExampleScenario.node[23].appl 	NumberofON 	0.64864864864865
scalar RSUExampleScenario.node[23].appl 	NumberofFN 	0.35135135135135
scalar RSUExampleScenario.node[23].veinsmobility 	startTime 	55.5
scalar RSUExampleScenario.node[23].veinsmobility 	totalTime 	394.5
scalar RSUExampleScenario.node[23].veinsmobility 	stopTime 	450
scalar RSUExampleScenario.node[23].veinsmobility 	minSpeed 	0
scalar RSUExampleScenario.node[23].veinsmobility 	maxSpeed 	13.999950416291
scalar RSUExampleScenario.node[23].veinsmobility 	totalDistance 	2335.8503869817
scalar RSUExampleScenario.node[23].veinsmobility 	totalCO2Emission 	683.91551299358
scalar RSUExampleScenario.node[24].appl 	meanClusterNodes 	0
scalar RSUExampleScenario.node[24].appl 	meanClusterHeadUtility 	0
scalar RSUExampleScenario.node[24].appl 	NumberofCH 	0
scalar RSUExampleScenario.node[24].appl 	NumberofON 	0.48648648648649
scalar RSUExampleScenario.node[24].appl 	NumberofFN 	0.51351351351351
scalar RSUExampleScenario.node[24].veinsmobility 	startTime 	57.9
scalar RSUExampleScenario.node[24].veinsmobility 	totalTime 	392.1
scalar RSUExampleScenario.node[24].veinsmobility 	stopTime 	450
scalar RSUExampleScenario.node[24].veinsmobility 	minSpeed 	0
scalar RSUExampleScenario.node[24].veinsmobility 	maxSpeed 	13.999695820052
scalar RSUExampleScenario.node[24].veinsmobility 	totalDistance 	2306.2771926915
scalar RSUExampleScenario.node[24].veinsmobility 	totalCO2Emission 	678.29577585886
scalar RSUExampleScenario.node[25].appl 	meanClusterNodes 	4
scalar RSUExampleScenario.node[25].appl 	meanClusterHeadUtility 	8.1561156542592
scalar RSUExampleScenario.node[25].appl 	NumberofCH 	0.10810810810811
scalar RSUExampleScenario.node[25].appl 	NumberofON 	0.62162162162162
scalar RSUExampleScenario.node[25].appl 	NumberofFN 	0.27027027027027
scalar RSUExampleScenario.node[25].veinsmobility 	startTime 	60.3
scalar RSUExampleScenario.node[25].veinsmobility 	totalTime 	389.7
scalar RSUExampleScenario.node[25].veinsmobility 	stopTime 	450
scalar RSUExampleScenario.node[25].veinsmobility 	minSpeed 	0
scalar RSUExampleScenario.node[25].veinsmobility 	maxSpeed 	13.999977995811
scalar RSUExampleScenario.node[25].veinsmobility 	totalDistance 	2268.1292408887
scalar RSUExampleScenario.node[25].veinsmobility 	totalCO2Emission 	669.36448802549
scalar RSUExampleScenario.node[26].appl 	meanClusterNodes 	6
scalar RSUExampleScenario.node[26].appl 	meanClusterHeadUtility 	17.347128700487
scalar RSUExampleScenario.node[26].appl 	NumberofCH 	0.054054054054054
scalar RSUExampleScenario.node[26].appl 	NumberofON 	0.56756756756757
scalar RSUExampleScenario.node[26].appl 	NumberofFN 	0.37837837837838
scalar RSUExampleScenario.node[26].veinsmobility 	startTime 	62.7
scalar RSUExampleScenario.node[26].veinsmobility 	totalTime 	387.3
scalar RSUExampleScenario.node[26].veinsmobility 	stopTime 	450
scalar RSUExampleScenario.node[26].veinsmobility 	minSpeed 	0
scalar RSUExampleScenario.node[26].veinsmobility 	maxSpeed 	13.999994427967
scalar RSUExampleScenario.node[26].veinsmobility 	totalDistance 	2237.4551130586
scalar RSUExampleScenario.node[26].veinsmobility 	totalCO2Emission 	666.10071414447
scalar RSUExampleScenario.node[27].appl 	meanClusterNodes 	6.5
scalar RSUExampleScenario.node[27].appl 	meanClusterHeadUtility 	17.489696979944
scalar RSUExampleScenario.node[27].appl 	NumberofCH 	0.054054054054054
scalar RSUExampleScenario.node[27].appl 	NumberofON 	0.62162162162162
scalar RSUExampleScenario.node[27].appl 	NumberofFN 	0.32432432432432
scalar RSUExampleScenario.node[27].veinsmobility 	startTime 	65.1
scalar RSUExampleScenario.node[27].veinsmobility 	totalTime 	384.9
scalar RSUExampleScenario.node[27].veinsmobility 	stopTime 	450
scalar RSUExampleScenario.node[27].veinsmobility 	minSpeed 	0
scalar RSUExampleScenario.node[27].veinsmobility 	maxSpeed 	13.999934004385
scalar RSUExampleScenario.node[27].veinsmobility 	totalDistance 	2200.0788187092
scalar RSUExampleScenario.node[27].veinsmobility 	totalCO2Emission 	661.6604218814
scalar RSUExampleScenario.node[28].appl 	meanClusterNodes 	10.75
scalar RSUExampleScenario.node[28].appl 	meanClusterHeadUtility 	8.6555637762182
scalar RSUExampleScenario.node[28].appl 	NumberofCH 	0.10810810810811
scalar RSUExampleScenario.node[28].appl 	NumberofON 	0.48648648648649
scalar RSUExampleScenario.node[28].appl 	NumberofFN 	0.40540540540541
scalar RSUExampleScenario.node[28].veinsmobility 	startTime 	67.5
scalar RSUExampleScenario.node[28].veinsmobility 	totalTime 	382.5
scalar RSUExampleScenario.node[28].veinsmobility 	stopTime 	450
scalar RSUExampleScenario.node[28].veinsmobility 	minSpeed 	0
scalar RSUExampleScenario.node[28].veinsmobility 	maxSpeed 	13.999912573714
scalar RSUExampleScenario.node[28].veinsmobility 	totalDistance 	2169.4717231674
scalar RSUExampleScenario.node[28].veinsmobility 	totalCO2Emission 	659.22438404643
scalar RSUExampleScenario.node[29].appl 	meanClusterNodes 	5.5
scalar RSUExampleScenario.node[29].appl 	meanClusterHeadUtility 	15.614857859205
scalar RSUExampleScenario.node[29].appl 	NumberofCH 	0.054054054054054
scalar RSUExampleScenario.node[29].appl 	NumberofON 	0.7027027027027
scalar RSUExampleScenario.node[29].appl 	NumberofFN 	0.24324324324324
scalar RSUExampleScenario.node[29].veinsmobility 	startTime 	69.9
scalar RSUExampleScenario.node[29].veinsmobility 	totalTime 	380.1
scalar RSUExampleScenario.node[29].veinsmobility 	stopTime 	450
scalar RSUExampleScenario.node[29].veinsmobility 	minSpeed 	0
scalar RSUExampleScenario.node[29].veinsmobility 	maxSpeed 	13.999637427179
scalar RSUExampleScenario.node[29].veinsmobility 	totalDistance 	2132.9575075996
scalar RSUExampleScenario.node[29].veinsmobility 	totalCO2Emission 	646.69173728734
scalar RSUExampleScenario.node[3].appl 	meanClusterNodes 	4.5
scalar RSUExampleScenario.node[3].appl 	meanClusterHeadUtility 	18.869966686268
scalar RSUExampleScenario.node[3].appl 	NumberofCH 	0.054054054054054
scalar RSUExampleScenario.node[3].appl 	NumberofON 	0.45945945945946
scalar RSUExampleScenario.node[3].appl 	NumberofFN 	0.48648648648649
scalar RSUExampleScenario.node[3].veinsmobility 	startTime 	7.3
scalar RSUExampleScenario.node[3].veinsmobility 	totalTime 	442.7
scalar RSUExampleScenario.node[3].veinsmobility 	stopTime 	450
scalar RSUExampleScenario.node[3].veinsmobility 	minSpeed 	0
scalar RSUExampleScenario.node[3].veinsmobility 	maxSpeed 	13.99997940409
scalar RSUExampleScenario.node[3].veinsmobility 	totalDistance 	2992.4202562901
scalar RSUExampleScenario.node[3].veinsmobility 	totalCO2Emission 	812.19306395661
scalar RSUExampleScenario.node[30].appl 	meanClusterNodes 	8
scalar RSUExampleScenario.node[30].appl 	meanClusterHeadUtility 	8.1550115989304
scalar RSUExampleScenario.node[30].appl 	NumberofCH 	0.10810810810811
scalar RSUExampleScenario.node[30].appl 	NumberofON 	0.67567567567568
scalar RSUExampleScenario.node[30].appl 	NumberofFN 	0.21621621621622
scalar RSUExampleScenario.node[30].veinsmobility 	startTime 	72.4
scalar RSUExampleScenario.node[30].veinsmobility 	totalTime 	377.6
scalar RSUExampleScenario.node[30].veinsmobility 	stopTime 	450
scalar RSUExampleScenario.node[30].veinsmobility 	minSpeed 	0
scalar RSUExampleScenario.node[30].veinsmobility 	maxSpeed 	13.999981815389
scalar RSUExampleScenario.node[30].veinsmobility 	totalDistance 	2102.2467630226
scalar RSUExampleScenario.node[30].veinsmobility 	totalCO2Emission 	641.48519250809
scalar RSUExampleScenario.node[31].appl 	meanClusterNodes 	7.75
scalar RSUExampleScenario.node[31].appl 	meanClusterHeadUtility 	7.9939488515415
scalar RSUExampleScenario.node[31].appl 	NumberofCH 	0.10810810810811
scalar RSUExampleScenario.node[31].appl 	NumberofON 	0.59459459459459
scalar RSUExampleScenario.node[31].appl 	NumberofFN 	0.2972972972973
scalar RSUExampleScenario.node[31].veinsmobility 	startTime 	74.8
scalar RSUExampleScenario.node[31].veinsmobility 	totalTime 	375.2
scalar RSUExampleScenario.node[31].veinsmobility 	stopTime 	450
scalar RSUExampleScenario.node[31].veinsmobility 	minSpeed 	0
scalar RSUExampleScenario.node[31].veinsmobility 	maxSpeed 	13.999756360529
scalar RSUExampleScenario.node[31].veinsmobility 	totalDistance 	2066.8865027491
scalar RSUExampleScenario.node[31].veinsmobility 	totalCO2Emission 	638.25982485861
scalar RSUExampleScenario.node[32].appl 	meanClusterNodes 	6.5
scalar RSUExampleScenario.node[32].appl 	meanClusterHeadUtility 	8.2774208191797
scalar RSUExampleScenario.node[32].appl 	NumberofCH 	0.10810810810811
scalar RSUExampleScenario.node[32].appl 	NumberofON 	0.62162162162162
scalar RSUExampleScenario.node[32].appl 	NumberofFN 	0.27027027027027
scalar RSUExampleScenario.node[32].veinsmobility 	startTime 	77.2
scalar RSUExampleScenario.node[32].veinsmobility 	totalTime 	372.8
scalar RSUExampleScenario.node[32].veinsmobility 	stopTime 	450
scalar RSUExampleScenario.node[32].veinsmobility 	minSpeed 	0
scalar RSUExampleScenario.node[32].veinsmobility 	maxSpeed 	13.999958033471
scalar RSUExampleScenario.node[32].veinsmobility 	totalDistance 	2033.5832714014
scalar RSUExampleScenario.node[32].veinsmobility 	totalCO2Emission 	632.91459581301
scalar RSUExampleScenario.node[33].appl 	meanClusterNodes 	2.5
scalar RSUExampleScenario.node[33].appl 	meanClusterHeadUtility 	8.5659305375234
scalar RSUExampleScenario.node[33].appl 	NumberofCH 	0.10810810810811
scalar RSUExampleScenario.node[33].appl 	NumberofON 	0.83783783783784
scalar RSUExampleScenario.node[33].appl 	NumberofFN 	0.054054054054054
scalar RSUExampleScenario.node[33].veinsmobility 	startTime 	79.6
scalar RSUExampleScenario.node[33].veinsmobility 	totalTime 	370.4
scalar RSUExampleScenario.node[33].veinsmobility 	stopTime 	450
scalar RSUExampleScenario.node[33].veinsmobility 	minSpeed 	0
scalar RSUExampleScenario.node[33].veinsmobility 	maxSpeed 	13.999897021933
scalar RSUExampleScenario.node[33].veinsmobility 	totalDistance 	1997.4854924101
scalar RSUExampleScenario.node[33].veinsmobility 	totalCO2Emission 	627.25100934163
scalar RSUExampleScenario.node[34].appl 	meanClusterNodes 	0
scalar RSUExampleScenario.node[34].appl 	meanClusterHeadUtility 	0
scalar RSUExampleScenario.node[34].appl 	NumberofCH 	0
scalar RSUExampleScenario.node[34].appl 	NumberofON 	0.62162162162162
scalar RSUExampleScenario.node[34].appl 	NumberofFN 	0.37837837837838
scalar RSUExampleScenario.node[34].veinsmobility 	startTime 	82
scalar RSUExampleScenario.node[34].veinsmobility 	totalTime 	368
scalar RSUExampleScenario.node[34].veinsmobility 	stopTime 	450
scalar RSUExampleScenario.node[34].veinsmobility 	minSpeed 	0
scalar RSUExampleScenario.node[34].veinsmobility 	maxSpeed 	13.999954249095
scalar RSUExampleScenario.node[34].veinsmobility 	totalDistance 	1963.8383884996
scalar RSUExampleScenario.node[34].veinsmobility 	totalCO2Emission 	620.39706868211
scalar RSUExampleScenario.node[35].appl 	meanClusterNodes 	10
scalar RSUExampleScenario.node[35].appl 	meanClusterHeadUtility 	18.051313286408
scalar RSUExampleScenario.node[35].appl 	NumberofCH 	0.054054054054054
scalar RSUExampleScenario.node[35].appl 	NumberofON 	0.35135135135135
scalar RSUExampleScenario.node[35].appl 	NumberofFN 	0.59459459459459
scalar RSUExampleScenario.node[35].veinsmobility 	startTime 	84.4
scalar RSUExampleScenario.node[35].veinsmobility 	totalTime 	365.6
scalar RSUExampleScenario.node[35].veinsmobility 	stopTime 	450
scalar RSUExampleScenario.node[35].veinsmobility 	minSpeed 	0
scalar RSUExampleScenario.node[35].veinsmobility 	maxSpeed 	13.999862491309
scalar RSUExampleScenario.node[35].veinsmobility 	totalDistance 	1930.6516678886
scalar RSUExampleScenario.node[35].veinsmobility 	totalCO2Emission 	613.59058877874
scalar RSUExampleScenario.node[36].appl 	meanClusterNodes 	14
scalar RSUExampleScenario.node[36].appl 	meanClusterHeadUtility 	32.385582978984
scalar RSUExampleScenario.node[36].appl 	NumberofCH 	0.027027027027027
scalar RSUExampleScenario.node[36].appl 	NumberofON 	0.62162162162162
scalar RSUExampleScenario.node[36].appl 	NumberofFN 	0.35135135135135
scalar RSUExampleScenario.node[36].veinsmobility 	startTime 	86.8
scalar RSUExampleScenario.node[36].veinsmobility 	totalTime 	363.2
scalar RSUExampleScenario.node[36].veinsmobility 	stopTime 	450
scalar RSUExampleScenario.node[36].veinsmobility 	minSpeed 	0
scalar RSUExampleScenario.node[36].veinsmobility 	maxSpeed 	13.999714501179
scalar RSUExampleScenario.node[36].veinsmobility 	totalDistance 	1897.0029532607
scalar RSUExampleScenario.node[36].veinsmobility 	totalCO2Emission 	608.39856234364
scalar RSUExampleScenario.node[37].appl 	meanClusterNodes 	2.5
scalar RSUExampleScenario.node[37].appl 	meanClusterHeadUtility 	15.740332762366
scalar RSUExampleScenario.node[37].appl 	NumberofCH 	0.054054054054054
scalar RSUExampleScenario.node[37].appl 	NumberofON 	0.78378378378378
scalar RSUExampleScenario.node[37].appl 	NumberofFN 	0.16216216216216
scalar RSUExampleScenario.node[37].veinsmobility 	startTime 	89.2
scalar RSUExampleScenario.node[37].veinsmobility 	totalTime 	360.8
scalar RSUExampleScenario.node[37].veinsmobility 	stopTime 	450
scalar RSUExampleScenario.node[37].veinsmobility 	minSpeed 	0
scalar RSUExampleScenario.node[37].veinsmobility 	maxSpeed 	13.99985386566
scalar RSUExampleScenario.node[37].veinsmobility 	totalDistance 	1863.9856526556
scalar RSUExampleScenario.node[37].veinsmobility 	totalCO2Emission 	602.90081106416
scalar RSUExampleScenario.node[38].appl 	meanClusterNodes 	9.75
scalar RSUExampleScenario.node[38].appl 	meanClusterHeadUtility 	8.4223821580716
scalar RSUExampleScenario.node[38].appl 	NumberofCH 	0.10810810810811
scalar RSUExampleScenario.node[38].appl 	NumberofON 	0.35135135135135
scalar RSUExampleScenario.node[38].appl 	NumberofFN 	0.54054054054054
scalar RSUExampleScenario.node[38].veinsmobility 	startTime 	91.6
scalar RSUExampleScenario.node[38].veinsmobility 	totalTime 	358.4
scalar RSUExampleScenario.node[38].veinsmobility 	stopTime 	450
scalar RSUExampleScenario.node[38].veinsmobility 	minSpeed 	0
scalar RSUExampleScenario.node[38].veinsmobility 	maxSpeed 	13.999924295233
scalar RSUExampleScenario.node[38].veinsmobility 	totalDistance 	1830.0316657741
scalar RSUExampleScenario.node[38].veinsmobility 	totalCO2Emission 	597.53532955985
scalar RSUExampleScenario.node[39].appl 	meanClusterNodes 	4
scalar RSUExampleScenario.node[39].appl 	meanClusterHeadUtility 	16.203427767755
scalar RSUExampleScenario.node[39].appl 	NumberofCH 	0.054054054054054
scalar RSUExampleScenario.node[39].appl 	NumberofON 	0.72972972972973
scalar RSUExampleScenario.node[39].appl 	NumberofFN 	0.21621621621622
scalar RSUExampleScenario.node[39].veinsmobility 	startTime 	94
scalar RSUExampleScenario.node[39].veinsmobility 	totalTime 	356
scalar RSUExampleScenario.node[39].veinsmobility 	stopTime 	450
scalar RSUExampleScenario.node[39].veinsmobility 	minSpeed 	0
scalar RSUExampleScenario.node[39].veinsmobility 	maxSpeed 	13.999951120839
scalar RSUExampleScenario.node[39].veinsmobility 	totalDistance 	1796.8576171109
scalar RSUExampleScenario.node[39].veinsmobility 	totalCO2Emission 	592.51386324204
scalar RSUExampleScenario.node[4].appl 	meanClusterNodes 	6.6666666666667
scalar RSUExampleScenario.node[4].appl 	meanClusterHeadUtility 	11.719782087896
scalar RSUExampleScenario.node[4].appl 	NumberofCH 	0.081081081081081
scalar RSUExampleScenario.node[4].appl 	NumberofON 	0.32432432432432
scalar RSUExampleScenario.node[4].appl 	NumberofFN 	0.59459459459459
scalar RSUExampleScenario.node[4].veinsmobility 	startTime 	9.7
scalar RSUExampleScenario.node[4].veinsmobility 	totalTime 	440.3
scalar RSUExampleScenario.node[4].veinsmobility 	stopTime 	450
scalar RSUExampleScenario.node[4].veinsmobility 	minSpeed 	0
scalar RSUExampleScenario.node[4].veinsmobility 	maxSpeed 	13.99988228309
scalar RSUExampleScenario.node[4].veinsmobility 	totalDistance 	2949.4735960111
scalar RSUExampleScenario.node[4].veinsmobility 	totalCO2Emission 	796.2785116869
scalar RSUExampleScenario.node[40].appl 	meanClusterNodes 	8.5
scalar RSUExampleScenario.node[40].appl 	meanClusterHeadUtility 	8.527992065848
scalar RSUExampleScenario.node[40].appl 	NumberofCH 	0.10810810810811
scalar RSUExampleScenario.node[40].appl 	NumberofON 	0.37837837837838
scalar RSUExampleScenario.node[40].appl 	NumberofFN 	0.51351351351351
scalar RSUExampleScenario.node[40].veinsmobility 	startTime 	96.5
scalar RSUExampleScenario.node[40].veinsmobility 	totalTime 	353.5
scalar RSUExampleScenario.node[40].veinsmobility 	stopTime 	450
scalar RSUExampleScenario.node[40].veinsmobility 	minSpeed 	0
scalar RSUExampleScenario.node[40].veinsmobility 	maxSpeed 	13.999778399556
scalar RSUExampleScenario.node[40].veinsmobility 	totalDistance 	1766.2430272757
scalar RSUExampleScenario.node[40].veinsmobility 	totalCO2Emission 	586.35236171359
scalar RSUExampleScenario.node[41].appl 	meanClusterNodes 	7.75
scalar RSUExampleScenario.node[41].appl 	meanClusterHeadUtility 	8.1953634325703
scalar RSUExampleScenario.node[41].appl 	NumberofCH 	0.10810810810811
scalar RSUExampleScenario.node[41].appl 	NumberofON 	0.45945945945946
scalar RSUExampleScenario.node[41].appl 	NumberofFN 	0.43243243243243
scalar RSUExampleScenario.node[41].veinsmobility 	startTime 	98.9
scalar RSUExampleScenario.node[41].veinsmobility 	totalTime 	351.1
scalar RSUExampleScenario.node[41].veinsmobility 	stopTime 	450
scalar RSUExampleScenario.node[41].veinsmobility 	minSpeed 	0
scalar RSUExampleScenario.node[41].veinsmobility 	maxSpeed 	13.9999171522
scalar RSUExampleScenario.node[41].veinsmobility 	totalDistance 	1729.5425929969
scalar RSUExampleScenario.node[41].veinsmobility 	totalCO2Emission 	582.12475249337
scalar RSUExampleScenario.node[42].appl 	meanClusterNodes 	12.5
scalar RSUExampleScenario.node[42].appl 	meanClusterHeadUtility 	16.918554353387
scalar RSUExampleScenario.node[42].appl 	NumberofCH 	0.054054054054054
scalar RSUExampleScenario.node[42].appl 	NumberofON 	0.51351351351351
scalar RSUExampleScenario.node[42].appl 	NumberofFN 	0.43243243243243
scalar RSUExampleScenario.node[42].veinsmobility 	startTime 	101.3
scalar RSUExampleScenario.node[42].veinsmobility 	totalTime 	348.7
scalar RSUExampleScenario.node[42].veinsmobility 	stopTime 	450
scalar RSUExampleScenario.node[42].veinsmobility 	minSpeed 	0
scalar RSUExampleScenario.node[42].veinsmobility 	maxSpeed 	13.99993436872
scalar RSUExampleScenario.node[42].veinsmobility 	totalDistance 	1698.0593755424
scalar RSUExampleScenario.node[42].veinsmobility 	totalCO2Emission 	575.84533837328
scalar RSUExampleScenario.node[43].appl 	meanClusterNodes 	12
scalar RSUExampleScenario.node[43].appl 	meanClusterHeadUtility 	17.072583476212
scalar RSUExampleScenario.node[43].appl 	NumberofCH 	0.054054054054054
scalar RSUExampleScenario.node[43].appl 	NumberofON 	0.43243243243243
scalar RSUExampleScenario.node[43].appl 	NumberofFN 	0.51351351351351
scalar RSUExampleScenario.node[43].veinsmobility 	startTime 	103.7
scalar RSUExampleScenario.node[43].veinsmobility 	totalTime 	346.3
scalar RSUExampleScenario.node[43].veinsmobility 	stopTime 	450
scalar RSUExampleScenario.node[43].veinsmobility 	minSpeed 	0
scalar RSUExampleScenario.node[43].veinsmobility 	maxSpeed 	13.99983849352
scalar RSUExampleScenario.node[43].veinsmobility 	totalDistance 	1664.3523094531
scalar RSUExampleScenario.node[43].veinsmobility 	totalCO2Emission 	568.56275678161
scalar RSUExampleScenario.node[44].appl 	meanClusterNodes 	4.5
scalar RSUExampleScenario.node[44].appl 	meanClusterHeadUtility 	7.8241816735183
scalar RSUExampleScenario.node[44].appl 	NumberofCH 	0.10810810810811
scalar RSUExampleScenario.node[44].appl 	NumberofON 	0.2972972972973
scalar RSUExampleScenario.node[44].appl 	NumberofFN 	0.59459459459459
scalar RSUExampleScenario.node[44].veinsmobility 	startTime 	106.1
scalar RSUExampleScenario.node[44].veinsmobility 	totalTime 	343.9
scalar RSUExampleScenario.node[44].veinsmobility 	stopTime 	450
scalar RSUExampleScenario.node[44].veinsmobility 	minSpeed 	0
scalar RSUExampleScenario.node[44].veinsmobility 	maxSpeed 	13.999870591324
scalar RSUExampleScenario.node[44].veinsmobility 	totalDistance 	1626.857013409
scalar RSUExampleScenario.node[44].veinsmobility 	totalCO2Emission 	563.34655669859
scalar RSUExampleScenario.node[45].appl 	meanClusterNodes 	4
scalar RSUExampleScenario.node[45].appl 	meanClusterHeadUtility 	16.678461066637
scalar RSUExampleScenario.node[45].appl 	NumberofCH 	0.054054054054054
scalar RSUExampleScenario.node[45].appl 	NumberofON 	0.62162162162162
scalar RSUExampleScenario.node[45].appl 	NumberofFN 	0.32432432432432
scalar RSUExampleScenario.node[45].veinsmobility 	startTime 	108.5
scalar RSUExampleScenario.node[45].veinsmobility 	totalTime 	341.5
scalar RSUExampleScenario.node[45].veinsmobility 	stopTime 	450
scalar RSUExampleScenario.node[45].veinsmobility 	minSpeed 	0
scalar RSUExampleScenario.node[45].veinsmobility 	maxSpeed 	13.999888301999
scalar RSUExampleScenario.node[45].veinsmobility 	totalDistance 	1594.6126898305
scalar RSUExampleScenario.node[45].veinsmobility 	totalCO2Emission 	559.08703302945
scalar RSUExampleScenario.node[46].appl 	meanClusterNodes 	3.75
scalar RSUExampleScenario.node[46].appl 	meanClusterHeadUtility 	8.6842966559822
scalar RSUExampleScenario.node[46].appl 	NumberofCH 	0.10810810810811
scalar RSUExampleScenario.node[46].appl 	NumberofON 	0.59459459459459
scalar RSUExampleScenario.node[46].appl 	NumberofFN 	0.2972972972973
scalar RSUExampleScenario.node[46].veinsmobility 	startTime 	110.9
scalar RSUExampleScenario.node[46].veinsmobility 	totalTime 	339.1
scalar RSUExampleScenario.node[46].veinsmobility 	stopTime 	450
scalar RSUExampleScenario.node[46].veinsmobility 	minSpeed 	0
scalar RSUExampleScenario.node[46].veinsmobility 	maxSpeed 	13.999914636356
scalar RSUExampleScenario.node[46].veinsmobility 	totalDistance 	1561.9564166724
scalar RSUExampleScenario.node[46].veinsmobility 	totalCO2Emission 	549.32214214638
scalar RSUExampleScenario.node[47].appl 	meanClusterNodes 	3.5
scalar RSUExampleScenario.node[47].appl 	meanClusterHeadUtility 	9.1353384175531
scalar RSUExampleScenario.node[47].appl 	NumberofCH 	0.10810810810811
scalar RSUExampleScenario.node[47].appl 	NumberofON 	0.7027027027027
scalar RSUExampleScenario.node[47].appl 	NumberofFN 	0.18918918918919
scalar RSUExampleScenario.node[47].veinsmobility 	startTime 	113.3
scalar RSUExampleScenario.node[47].veinsmobility 	totalTime 	336.7
scalar RSUExampleScenario.node[47].veinsmobility 	stopTime 	450
scalar RSUExampleScenario.node[47].veinsmobility 	minSpeed 	0
scalar RSUExampleScenario.node[47].veinsmobility 	maxSpeed 	13.999821464692
scalar RSUExampleScenario.node[47].veinsmobility 	totalDistance 	1528.3216864774
scalar RSUExampleScenario.node[47].veinsmobility 	totalCO2Emission 	548.61737818133
scalar RSUExampleScenario.node[48].appl 	meanClusterNodes 	5.75
scalar RSUExampleScenario.node[48].appl 	meanClusterHeadUtility 	7.817256533172
scalar RSUExampleScenario.node[48].appl 	NumberofCH 	0.10810810810811
scalar RSUExampleScenario.node[48].appl 	NumberofON 	0.7027027027027
scalar RSUExampleScenario.node[48].appl 	NumberofFN 	0.18918918918919
scalar RSUExampleScenario.node[48].veinsmobility 	startTime 	115.7
scalar RSUExampleScenario.node[48].veinsmobility 	totalTime 	334.3
scalar RSUExampleScenario.node[48].veinsmobility 	stopTime 	450
scalar RSUExampleScenario.node[48].veinsmobility 	minSpeed 	0
scalar RSUExampleScenario.node[48].veinsmobility 	maxSpeed 	13.999954574506
scalar RSUExampleScenario.node[48].veinsmobility 	totalDistance 	1495.0836884009
scalar RSUExampleScenario.node[48].veinsmobility 	totalCO2Emission 	539.44115221573
scalar RSUExampleScenario.node[49].appl 	meanClusterNodes 	0
scalar RSUExampleScenario.node[49].appl 	meanClusterHeadUtility 	0
scalar RSUExampleScenario.node[49].appl 	NumberofCH 	0.054054054054054
scalar RSUExampleScenario.node[49].appl 	NumberofON 	0.64864864864865
scalar RSUExampleScenario.node[49].appl 	NumberofFN 	0.2972972972973
scalar RSUExampleScenario.node[49].veinsmobility 	startTime 	118.1
scalar RSUExampleScenario.node[49].veinsmobility 	totalTime 	331.9
scalar RSUExampleScenario.node[49].veinsmobility 	stopTime 	450
scalar RSUExampleScenario.node[49].veinsmobility 	minSpeed 	0
scalar RSUExampleScenario.node[49].veinsmobility 	maxSpeed 	13.999904499426
scalar RSUExampleScenario.node[49].veinsmobility 	totalDistance 	1461.4899455275
scalar RSUExampleScenario.node[49].veinsmobility 	totalCO2Emission 	534.75372794261
scalar RSUExampleScenario.node[5].appl 	meanClusterNodes 	7
scalar RSUExampleScenario.node[5].appl 	meanClusterHeadUtility 	20.075816613434
scalar RSUExampleScenario.node[5].appl 	NumberofCH 	0.054054054054054
scalar RSUExampleScenario.node[5].appl 	NumberofON 	0.32432432432432
scalar RSUExampleScenario.node[5].appl 	NumberofFN 	0.62162162162162
scalar RSUExampleScenario.node[5].veinsmobility 	startTime 	12.1
scalar RSUExampleScenario.node[5].veinsmobility 	totalTime 	437.9
scalar RSUExampleScenario.node[5].veinsmobility 	stopTime 	450
scalar RSUExampleScenario.node[5].veinsmobility 	minSpeed 	0
scalar RSUExampleScenario.node[5].veinsmobility 	maxSpeed 	13.999979470528
scalar RSUExampleScenario.node[5].veinsmobility 	totalDistance 	2913.9208218607
scalar RSUExampleScenario.node[5].veinsmobility 	totalCO2Emission 	784.39828543554
scalar RSUExampleScenario.node[50].appl 	meanClusterNodes 	3.5
scalar RSUExampleScenario.node[50].appl 	meanClusterHeadUtility 	16.188933480579
scalar RSUExampleScenario.node[50].appl 	NumberofCH 	0.054054054054054
scalar RSUExampleScenario.node[50].appl 	NumberofON 	0.75675675675676
scalar RSUExampleScenario.node[50].appl 	NumberofFN 	0.18918918918919
scalar RSUExampleScenario.node[50].veinsmobility 	startTime 	120.6
scalar RSUExampleScenario.node[50].veinsmobility 	totalTime 	329.4
scalar RSUExampleScenario.node[50].veinsmobility 	stopTime 	450
scalar RSUExampleScenario.node[50].veinsmobility 	minSpeed 	0
scalar RSUExampleScenario.node[50].veinsmobility 	maxSpeed 	13.999649056138
scalar RSUExampleScenario.node[50].veinsmobility 	totalDistance 	1428.3900192123
scalar RSUExampleScenario.node[50].veinsmobility 	totalCO2Emission 	530.15736016204
scalar RSUExampleScenario.node[51].appl 	meanClusterNodes 	0
scalar RSUExampleScenario.node[51].appl 	meanClusterHeadUtility 	0
scalar RSUExampleScenario.node[51].appl 	NumberofCH 	0
scalar RSUExampleScenario.node[51].appl 	NumberofON 	0.59459459459459
scalar RSUExampleScenario.node[51].appl 	NumberofFN 	0.40540540540541
scalar RSUExampleScenario.node[51].veinsmobility 	startTime 	123
scalar RSUExampleScenario.node[51].veinsmobility 	totalTime 	327
scalar RSUExampleScenario.node[51].veinsmobility 	stopTime 	450
scalar RSUExampleScenario.node[51].veinsmobility 	minSpeed 	0
scalar RSUExampleScenario.node[51].veinsmobility 	maxSpeed 	13.999821635131
scalar RSUExampleScenario.node[51].veinsmobility 	totalDistance 	1395.0389825563
scalar RSUExampleScenario.node[51].veinsmobility 	totalCO2Emission 	524.95619555158
scalar RSUExampleScenario.node[52].appl 	meanClusterNodes 	10.25
scalar RSUExampleScenario.node[52].appl 	meanClusterHeadUtility 	8.1520887772521
scalar RSUExampleScenario.node[52].appl 	NumberofCH 	0.10810810810811
scalar RSUExampleScenario.node[52].appl 	NumberofON 	0.51351351351351
scalar RSUExampleScenario.node[52].appl 	NumberofFN 	0.37837837837838
scalar RSUExampleScenario.node[52].veinsmobility 	startTime 	125.4
scalar RSUExampleScenario.node[52].veinsmobility 	totalTime 	324.6
scalar RSUExampleScenario.node[52].veinsmobility 	stopTime 	450
scalar RSUExampleScenario.node[52].veinsmobility 	minSpeed 	0
scalar RSUExampleScenario.node[52].veinsmobility 	maxSpeed 	13.999963739289
scalar RSUExampleScenario.node[52].veinsmobility 	totalDistance 	1361.9213128731
scalar RSUExampleScenario.node[52].veinsmobility 	totalCO2Emission 	516.95886278078
scalar RSUExampleScenario.node[53].appl 	meanClusterNodes 	7
scalar RSUExampleScenario.node[53].appl 	meanClusterHeadUtility 	16.806988094899
scalar RSUExampleScenario.node[53].appl 	NumberofCH 	0.054054054054054
scalar RSUExampleScenario.node[53].appl 	NumberofON 	0.81081081081081
scalar RSUExampleScenario.node[53].appl 	NumberofFN 	0.13513513513514
scalar RSUExampleScenario.node[53].veinsmobility 	startTime 	127.8
scalar RSUExampleScenario.node[53].veinsmobility 	totalTime 	322.2
scalar RSUExampleScenario.node[53].veinsmobility 	stopTime 	450
scalar RSUExampleScenario.node[53].veinsmobility 	minSpeed 	0
scalar RSUExampleScenario.node[53].veinsmobility 	maxSpeed 	13.999994554971
scalar RSUExampleScenario.node[53].veinsmobility 	totalDistance 	1326.8630900873
scalar RSUExampleScenario.node[53].veinsmobility 	totalCO2Emission 	514.36543976792
scalar RSUExampleScenario.node[54].appl 	meanClusterNodes 	7.5
scalar RSUExampleScenario.node[54].appl 	meanClusterHeadUtility 	8.1489152856286
scalar RSUExampleScenario.node[54].appl 	NumberofCH 	0.10810810810811
scalar RSUExampleScenario.node[54].appl 	NumberofON 	0.32432432432432
scalar RSUExampleScenario.node[54].appl 	NumberofFN 	0.56756756756757
scalar RSUExampleScenario.node[54].veinsmobility 	startTime 	130.2
scalar RSUExampleScenario.node[54].veinsmobility 	totalTime 	319.8
scalar RSUExampleScenario.node[54].veinsmobility 	stopTime 	450
scalar RSUExampleScenario.node[54].veinsmobility 	minSpeed 	0
scalar RSUExampleScenario.node[54].veinsmobility 	maxSpeed 	13.999808715817
scalar RSUExampleScenario.node[54].veinsmobility 	totalDistance 	1292.7827821921
scalar RSUExampleScenario.node[54].veinsmobility 	totalCO2Emission 	507.50029908646
scalar RSUExampleScenario.node[55].appl 	meanClusterNodes 	9
scalar RSUExampleScenario.node[55].appl 	meanClusterHeadUtility 	17.594194114891
scalar RSUExampleScenario.node[55].appl 	NumberofCH 	0.054054054054054
scalar RSUExampleScenario.node[55].appl 	NumberofON 	0.45945945945946
scalar RSUExampleScenario.node[55].appl 	NumberofFN 	0.48648648648649
scalar RSUExampleScenario.node[55].veinsmobility 	startTime 	132.6
scalar RSUExampleScenario.node[55].veinsmobility 	totalTime 	317.4
scalar RSUExampleScenario.node[55].veinsmobility 	stopTime 	450
scalar RSUExampleScenario.node[55].veinsmobility 	minSpeed 	0
scalar RSUExampleScenario.node[55].veinsmobility 	maxSpeed 	13.999982406583
scalar RSUExampleScenario.node[55].veinsmobility 	totalDistance 	1258.9925638509
scalar RSUExampleScenario.node[55].veinsmobility 	totalCO2Emission 	501.6429588201
scalar RSUExampleScenario.node[56].appl 	meanClusterNodes 	4.75
scalar RSUExampleScenario.node[56].appl 	meanClusterHeadUtility 	8.3225892210178
scalar RSUExampleScenario.node[56].appl 	NumberofCH 	0.10810810810811
scalar RSUExampleScenario.node[56].appl 	NumberofON 	0.59459459459459
scalar RSUExampleScenario.node[56].appl 	NumberofFN 	0.2972972972973
scalar RSUExampleScenario.node[56].veinsmobility 	startTime 	135
scalar RSUExampleScenario.node[56].veinsmobility 	totalTime 	315
scalar RSUExampleScenario.node[56].veinsmobility 	stopTime 	450
scalar RSUExampleScenario.node[56].veinsmobility 	minSpeed 	0
scalar RSUExampleScenario.node[56].veinsmobility 	maxSpeed 	13.999972872471
scalar RSUExampleScenario.node[56].veinsmobility 	totalDistance 	1226.1568565426
scalar RSUExampleScenario.node[56].veinsmobility 	totalCO2Emission 	496.3485539881
scalar RSUExampleScenario.node[57].appl 	meanClusterNodes 	0
scalar RSUExampleScenario.node[57].appl 	meanClusterHeadUtility 	0
scalar RSUExampleScenario.node[57].appl 	NumberofCH 	0
scalar RSUExampleScenario.node[57].appl 	NumberofON 	0.51351351351351
scalar RSUExampleScenario.node[57].appl 	NumberofFN 	0.48648648648649
scalar RSUExampleScenario.node[57].veinsmobility 	startTime 	137.4
scalar RSUExampleScenario.node[57].veinsmobility 	totalTime 	312.6
scalar RSUExampleScenario.node[57].veinsmobility 	stopTime 	450
scalar RSUExampleScenario.node[57].veinsmobility 	minSpeed 	0
scalar RSUExampleScenario.node[57].veinsmobility 	maxSpeed 	13.999965657159
scalar RSUExampleScenario.node[57].veinsmobility 	totalDistance 	1192.8127360649
scalar RSUExampleScenario.node[57].veinsmobility 	totalCO2Emission 	488.0111327012
scalar RSUExampleScenario.node[58].appl 	meanClusterNodes 	8.3333333333333
scalar RSUExampleScenario.node[58].appl 	meanClusterHeadUtility 	11.663642240082
scalar RSUExampleScenario.node[58].appl 	NumberofCH 	0.081081081081081
scalar RSUExampleScenario.node[58].appl 	NumberofON 	0.40540540540541
scalar RSUExampleScenario.node[58].appl 	NumberofFN 	0.51351351351351
scalar RSUExampleScenario.node[58].veinsmobility 	startTime 	139.8
scalar RSUExampleScenario.node[58].veinsmobility 	totalTime 	310.2
scalar RSUExampleScenario.node[58].veinsmobility 	stopTime 	450
scalar RSUExampleScenario.node[58].veinsmobility 	minSpeed 	0
scalar RSUExampleScenario.node[58].veinsmobility 	maxSpeed 	13.999731538875
scalar RSUExampleScenario.node[58].veinsmobility 	totalDistance 	1158.0634266328
scalar RSUExampleScenario.node[58].veinsmobility 	totalCO2Emission 	486.39429502178
scalar RSUExampleScenario.node[59].appl 	meanClusterNodes 	3.5
scalar RSUExampleScenario.node[59].appl 	meanClusterHeadUtility 	7.7661482590937
scalar RSUExampleScenario.node[59].appl 	NumberofCH 	0.10810810810811
scalar RSUExampleScenario.node[59].appl 	NumberofON 	0.75675675675676
scalar RSUExampleScenario.node[59].appl 	NumberofFN 	0.13513513513514
scalar RSUExampleScenario.node[59].veinsmobility 	startTime 	142.2
scalar RSUExampleScenario.node[59].veinsmobility 	totalTime 	307.8
scalar RSUExampleScenario.node[59].veinsmobility 	stopTime 	450
scalar RSUExampleScenario.node[59].veinsmobility 	minSpeed 	0
scalar RSUExampleScenario.node[59].veinsmobility 	maxSpeed 	13.99972863442
scalar RSUExampleScenario.node[59].veinsmobility 	totalDistance 	1126.2104965064
scalar RSUExampleScenario.node[59].veinsmobility 	totalCO2Emission 	478.47319925086
scalar RSUExampleScenario.node[6].appl 	meanClusterNodes 	3
scalar RSUExampleScenario.node[6].appl 	meanClusterHeadUtility 	18.922445338198
scalar RSUExampleScenario.node[6].appl 	NumberofCH 	0.054054054054054
scalar RSUExampleScenario.node[6].appl 	NumberofON 	0.37837837837838
scalar RSUExampleScenario.node[6].appl 	NumberofFN 	0.56756756756757
scalar RSUExampleScenario.node[6].veinsmobility 	startTime 	14.5
scalar RSUExampleScenario.node[6].veinsmobility 	totalTime 	435.5
scalar RSUExampleScenario.node[6].veinsmobility 	stopTime 	450
scalar RSUExampleScenario.node[6].veinsmobility 	minSpeed 	0
scalar RSUExampleScenario.node[6].veinsmobility 	maxSpeed 	13.999957899565
scalar RSUExampleScenario.node[6].veinsmobility 	totalDistance 	2905.837773125
scalar RSUExampleScenario.node[6].veinsmobility 	totalCO2Emission 	776.80990253738
scalar RSUExampleScenario.node[60].appl 	meanClusterNodes 	3
scalar RSUExampleScenario.node[60].appl 	meanClusterHeadUtility 	16.246018625724
scalar RSUExampleScenario.node[60].appl 	NumberofCH 	0.054054054054054
scalar RSUExampleScenario.node[60].appl 	NumberofON 	0.72972972972973
scalar RSUExampleScenario.node[60].appl 	NumberofFN 	0.21621621621622
scalar RSUExampleScenario.node[60].veinsmobility 	startTime 	144.7
scalar RSUExampleScenario.node[60].veinsmobility 	totalTime 	305.3
scalar RSUExampleScenario.node[60].veinsmobility 	stopTime 	450
scalar RSUExampleScenario.node[60].veinsmobility 	minSpeed 	0
scalar RSUExampleScenario.node[60].veinsmobility 	maxSpeed 	13.999611891988
scalar RSUExampleScenario.node[60].veinsmobility 	totalDistance 	1092.3457269688
scalar RSUExampleScenario.node[60].veinsmobility 	totalCO2Emission 	473.83847421607
scalar RSUExampleScenario.node[61].appl 	meanClusterNodes 	2.5
scalar RSUExampleScenario.node[61].appl 	meanClusterHeadUtility 	9.8016668171484
scalar RSUExampleScenario.node[61].appl 	NumberofCH 	0.10810810810811
scalar RSUExampleScenario.node[61].appl 	NumberofON 	0.7027027027027
scalar RSUExampleScenario.node[61].appl 	NumberofFN 	0.18918918918919
scalar RSUExampleScenario.node[61].veinsmobility 	startTime 	147.1
scalar RSUExampleScenario.node[61].veinsmobility 	totalTime 	302.9
scalar RSUExampleScenario.node[61].veinsmobility 	stopTime 	450
scalar RSUExampleScenario.node[61].veinsmobility 	minSpeed 	0
scalar RSUExampleScenario.node[61].veinsmobility 	maxSpeed 	13.999853146554
scalar RSUExampleScenario.node[61].veinsmobility 	totalDistance 	1058.4707225664
scalar RSUExampleScenario.node[61].veinsmobility 	totalCO2Emission 	469.9933649889
scalar RSUExampleScenario.node[62].appl 	meanClusterNodes 	5
scalar RSUExampleScenario.node[62].appl 	meanClusterHeadUtility 	7.7030965363501
scalar RSUExampleScenario.node[62].appl 	NumberofCH 	0.10810810810811
scalar RSUExampleScenario.node[62].appl 	NumberofON 	0.7027027027027
scalar RSUExampleScenario.node[62].appl 	NumberofFN 	0.18918918918919
scalar RSUExampleScenario.node[62].veinsmobility 	startTime 	149.5
scalar RSUExampleScenario.node[62].veinsmobility 	totalTime 	300.5
scalar RSUExampleScenario.node[62].veinsmobility 	stopTime 	450
scalar RSUExampleScenario.node[62].veinsmobility 	minSpeed 	0
scalar RSUExampleScenario.node[62].veinsmobility 	maxSpeed 	13.999853676879
scalar RSUExampleScenario.node[62].veinsmobility 	totalDistance 	1024.1037060969
scalar RSUExampleScenario.node[62].veinsmobility 	totalCO2Emission 	461.91590938422
scalar RSUExampleScenario.node[63].appl 	meanClusterNodes 	4
scalar RSUExampleScenario.node[63].appl 	meanClusterHeadUtility 	20.320552370703
scalar RSUExampleScenario.node[63].appl 	NumberofCH 	0.054054054054054
scalar RSUExampleScenario.node[63].appl 	NumberofON 	0.75675675675676
scalar RSUExampleScenario.node[63].appl 	NumberofFN 	0.18918918918919
scalar RSUExampleScenario.node[63].veinsmobility 	startTime 	151.9
scalar RSUExampleScenario.node[63].veinsmobility 	totalTime 	298.1
scalar RSUExampleScenario.node[63].veinsmobility 	stopTime 	450
scalar RSUExampleScenario.node[63].veinsmobility 	minSpeed 	0
scalar RSUExampleScenario.node[63].veinsmobility 	maxSpeed 	13.999554478496
scalar RSUExampleScenario.node[63].veinsmobility 	totalDistance 	985.45088744899
scalar RSUExampleScenario.node[63].veinsmobility 	totalCO2Emission 	447.9906290387
scalar RSUExampleScenario.node[64].appl 	meanClusterNodes 	3.5
scalar RSUExampleScenario.node[64].appl 	meanClusterHeadUtility 	17.782104958944
scalar RSUExampleScenario.node[64].appl 	NumberofCH 	0.054054054054054
scalar RSUExampleScenario.node[64].appl 	NumberofON 	0.72972972972973
scalar RSUExampleScenario.node[64].appl 	NumberofFN 	0.21621621621622
scalar RSUExampleScenario.node[64].veinsmobility 	startTime 	154.3
scalar RSUExampleScenario.node[64].veinsmobility 	totalTime 	295.7
scalar RSUExampleScenario.node[64].veinsmobility 	stopTime 	450
scalar RSUExampleScenario.node[64].veinsmobility 	minSpeed 	0
scalar RSUExampleScenario.node[64].veinsmobility 	maxSpeed 	13.999736396039
scalar RSUExampleScenario.node[64].veinsmobility 	totalDistance 	954.69722240556
scalar RSUExampleScenario.node[64].veinsmobility 	totalCO2Emission 	437.73040434145
scalar RSUExampleScenario.node[65].appl 	meanClusterNodes 	3
scalar RSUExampleScenario.node[65].appl 	meanClusterHeadUtility 	17.589315584493
scalar RSUExampleScenario.node[65].appl 	NumberofCH 	0.054054054054054
scalar RSUExampleScenario.node[65].appl 	NumberofON 	0.62162162162162
scalar RSUExampleScenario.node[65].appl 	NumberofFN 	0.32432432432432
scalar RSUExampleScenario.node[65].veinsmobility 	startTime 	156.7
scalar RSUExampleScenario.node[65].veinsmobility 	totalTime 	293.3
scalar RSUExampleScenario.node[65].veinsmobility 	stopTime 	450
scalar RSUExampleScenario.node[65].veinsmobility 	minSpeed 	0
scalar RSUExampleScenario.node[65].veinsmobility 	maxSpeed 	13.999330861326
scalar RSUExampleScenario.node[65].veinsmobility 	totalDistance 	940.54488652364
scalar RSUExampleScenario.node[65].veinsmobility 	totalCO2Emission 	429.29595893618
scalar RSUExampleScenario.node[66].appl 	meanClusterNodes 	9
scalar RSUExampleScenario.node[66].appl 	meanClusterHeadUtility 	17.677309671332
scalar RSUExampleScenario.node[66].appl 	NumberofCH 	0.054054054054054
scalar RSUExampleScenario.node[66].appl 	NumberofON 	0.56756756756757
scalar RSUExampleScenario.node[66].appl 	NumberofFN 	0.37837837837838
scalar RSUExampleScenario.node[66].veinsmobility 	startTime 	159.1
scalar RSUExampleScenario.node[66].veinsmobility 	totalTime 	290.9
scalar RSUExampleScenario.node[66].veinsmobility 	stopTime 	450
scalar RSUExampleScenario.node[66].veinsmobility 	minSpeed 	0
scalar RSUExampleScenario.node[66].veinsmobility 	maxSpeed 	13.999909521309
scalar RSUExampleScenario.node[66].veinsmobility 	totalDistance 	928.59283345218
scalar RSUExampleScenario.node[66].veinsmobility 	totalCO2Emission 	425.24602303393
scalar RSUExampleScenario.node[67].appl 	meanClusterNodes 	7.5
scalar RSUExampleScenario.node[67].appl 	meanClusterHeadUtility 	8.6937045683233
scalar RSUExampleScenario.node[67].appl 	NumberofCH 	0.10810810810811
scalar RSUExampleScenario.node[67].appl 	NumberofON 	0.62162162162162
scalar RSUExampleScenario.node[67].appl 	NumberofFN 	0.27027027027027
scalar RSUExampleScenario.node[67].veinsmobility 	startTime 	161.5
scalar RSUExampleScenario.node[67].veinsmobility 	totalTime 	288.5
scalar RSUExampleScenario.node[67].veinsmobility 	stopTime 	450
scalar RSUExampleScenario.node[67].veinsmobility 	minSpeed 	0
scalar RSUExampleScenario.node[67].veinsmobility 	maxSpeed 	13.99998678975
scalar RSUExampleScenario.node[67].veinsmobility 	totalDistance 	913.84934160346
scalar RSUExampleScenario.node[67].veinsmobility 	totalCO2Emission 	422.99110473813
scalar RSUExampleScenario.node[68].appl 	meanClusterNodes 	5
scalar RSUExampleScenario.node[68].appl 	meanClusterHeadUtility 	15.834907009029
scalar RSUExampleScenario.node[68].appl 	NumberofCH 	0.054054054054054
scalar RSUExampleScenario.node[68].appl 	NumberofON 	0.40540540540541
scalar RSUExampleScenario.node[68].appl 	NumberofFN 	0.54054054054054
scalar RSUExampleScenario.node[68].veinsmobility 	startTime 	163.9
scalar RSUExampleScenario.node[68].veinsmobility 	totalTime 	286.1
scalar RSUExampleScenario.node[68].veinsmobility 	stopTime 	450
scalar RSUExampleScenario.node[68].veinsmobility 	minSpeed 	0
scalar RSUExampleScenario.node[68].veinsmobility 	maxSpeed 	13.999825022088
scalar RSUExampleScenario.node[68].veinsmobility 	totalDistance 	894.61502903877
scalar RSUExampleScenario.node[68].veinsmobility 	totalCO2Emission 	419.49374895886
scalar RSUExampleScenario.node[69].appl 	meanClusterNodes 	8.5
scalar RSUExampleScenario.node[69].appl 	meanClusterHeadUtility 	17.089821409741
scalar RSUExampleScenario.node[69].appl 	NumberofCH 	0.054054054054054
scalar RSUExampleScenario.node[69].appl 	NumberofON 	0.62162162162162
scalar RSUExampleScenario.node[69].appl 	NumberofFN 	0.32432432432432
scalar RSUExampleScenario.node[69].veinsmobility 	startTime 	166.3
scalar RSUExampleScenario.node[69].veinsmobility 	totalTime 	283.7
scalar RSUExampleScenario.node[69].veinsmobility 	stopTime 	450
scalar RSUExampleScenario.node[69].veinsmobility 	minSpeed 	0
scalar RSUExampleScenario.node[69].veinsmobility 	maxSpeed 	13.999635638341
scalar RSUExampleScenario.node[69].veinsmobility 	totalDistance 	861.12751953131
scalar RSUExampleScenario.node[69].veinsmobility 	totalCO2Emission 	413.00431369511
scalar RSUExampleScenario.node[7].appl 	meanClusterNodes 	2
scalar RSUExampleScenario.node[7].appl 	meanClusterHeadUtility 	18.533251492464
scalar RSUExampleScenario.node[7].appl 	NumberofCH 	0.054054054054054
scalar RSUExampleScenario.node[7].appl 	NumberofON 	0.24324324324324
scalar RSUExampleScenario.node[7].appl 	NumberofFN 	0.7027027027027
scalar RSUExampleScenario.node[7].veinsmobility 	startTime 	16.9
scalar RSUExampleScenario.node[7].veinsmobility 	totalTime 	433.1
scalar RSUExampleScenario.node[7].veinsmobility 	stopTime 	450
scalar RSUExampleScenario.node[7].veinsmobility 	minSpeed 	0
scalar RSUExampleScenario.node[7].veinsmobility 	maxSpeed 	13.9999024205
scalar RSUExampleScenario.node[7].veinsmobility 	totalDistance 	2885.648311599
scalar RSUExampleScenario.node[7].veinsmobility 	totalCO2Emission 	776.89767127824
scalar RSUExampleScenario.node[70].appl 	meanClusterNodes 	8
scalar RSUExampleScenario.node[70].appl 	meanClusterHeadUtility 	9.3823666327462
scalar RSUExampleScenario.node[70].appl 	NumberofCH 	0.10810810810811
scalar RSUExampleScenario.node[70].appl 	NumberofON 	0.43243243243243
scalar RSUExampleScenario.node[70].appl 	NumberofFN 	0.45945945945946
scalar RSUExampleScenario.node[70].veinsmobility 	startTime 	168.8
scalar RSUExampleScenario.node[70].veinsmobility 	totalTime 	281.2
scalar RSUExampleScenario.node[70].veinsmobility 	stopTime 	450
scalar RSUExampleScenario.node[70].veinsmobility 	minSpeed 	0
scalar RSUExampleScenario.node[70].veinsmobility 	maxSpeed 	13.999951957809
scalar RSUExampleScenario.node[70].veinsmobility 	totalDistance 	825.60134508966
scalar RSUExampleScenario.node[70].veinsmobility 	totalCO2Emission 	407.44365804376
scalar RSUExampleScenario.node[71].appl 	meanClusterNodes 	4
scalar RSUExampleScenario.node[71].appl 	meanClusterHeadUtility 	17.494353705348
scalar RSUExampleScenario.node[71].appl 	NumberofCH 	0.054054054054054
scalar RSUExampleScenario.node[71].appl 	NumberofON 	0.43243243243243
scalar RSUExampleScenario.node[71].appl 	NumberofFN 	0.51351351351351
scalar RSUExampleScenario.node[71].veinsmobility 	startTime 	171.2
scalar RSUExampleScenario.node[71].veinsmobility 	totalTime 	278.8
scalar RSUExampleScenario.node[71].veinsmobility 	stopTime 	450
scalar RSUExampleScenario.node[71].veinsmobility 	minSpeed 	0
scalar RSUExampleScenario.node[71].veinsmobility 	maxSpeed 	13.999947143686
scalar RSUExampleScenario.node[71].veinsmobility 	totalDistance 	792.42223111118
scalar RSUExampleScenario.node[71].veinsmobility 	totalCO2Emission 	402.44337188733
scalar RSUExampleScenario.node[72].appl 	meanClusterNodes 	3
scalar RSUExampleScenario.node[72].appl 	meanClusterHeadUtility 	8.8722619339529
scalar RSUExampleScenario.node[72].appl 	NumberofCH 	0.10810810810811
scalar RSUExampleScenario.node[72].appl 	NumberofON 	0.67567567567568
scalar RSUExampleScenario.node[72].appl 	NumberofFN 	0.21621621621622
scalar RSUExampleScenario.node[72].veinsmobility 	startTime 	173.6
scalar RSUExampleScenario.node[72].veinsmobility 	totalTime 	276.4
scalar RSUExampleScenario.node[72].veinsmobility 	stopTime 	450
scalar RSUExampleScenario.node[72].veinsmobility 	minSpeed 	0
scalar RSUExampleScenario.node[72].veinsmobility 	maxSpeed 	13.999894769934
scalar RSUExampleScenario.node[72].veinsmobility 	totalDistance 	759.90962473485
scalar RSUExampleScenario.node[72].veinsmobility 	totalCO2Emission 	397.56024719789
scalar RSUExampleScenario.node[73].appl 	meanClusterNodes 	8.75
scalar RSUExampleScenario.node[73].appl 	meanClusterHeadUtility 	8.3627466381921
scalar RSUExampleScenario.node[73].appl 	NumberofCH 	0.10810810810811
scalar RSUExampleScenario.node[73].appl 	NumberofON 	0.45945945945946
scalar RSUExampleScenario.node[73].appl 	NumberofFN 	0.43243243243243
scalar RSUExampleScenario.node[73].veinsmobility 	startTime 	176
scalar RSUExampleScenario.node[73].veinsmobility 	totalTime 	274
scalar RSUExampleScenario.node[73].veinsmobility 	stopTime 	450
scalar RSUExampleScenario.node[73].veinsmobility 	minSpeed 	0
scalar RSUExampleScenario.node[73].veinsmobility 	maxSpeed 	13.998733676793
scalar RSUExampleScenario.node[73].veinsmobility 	totalDistance 	726.39572636831
scalar RSUExampleScenario.node[73].veinsmobility 	totalCO2Emission 	390.87417980909
scalar RSUExampleScenario.node[74].appl 	meanClusterNodes 	4
scalar RSUExampleScenario.node[74].appl 	meanClusterHeadUtility 	9.2064213867926
scalar RSUExampleScenario.node[74].appl 	NumberofCH 	0.10810810810811
scalar RSUExampleScenario.node[74].appl 	NumberofON 	0.43243243243243
scalar RSUExampleScenario.node[74].appl 	NumberofFN 	0.45945945945946
scalar RSUExampleScenario.node[74].veinsmobility 	startTime 	178.4
scalar RSUExampleScenario.node[74].veinsmobility 	totalTime 	271.6
scalar RSUExampleScenario.node[74].veinsmobility 	stopTime 	450
scalar RSUExampleScenario.node[74].veinsmobility 	minSpeed 	0
scalar RSUExampleScenario.node[74].veinsmobility 	maxSpeed 	13.999495438584
scalar RSUExampleScenario.node[74].veinsmobility 	totalDistance 	692.01731408514
scalar RSUExampleScenario.node[74].veinsmobility 	totalCO2Emission 	384.87886866357
scalar RSUExampleScenario.node[75].appl 	meanClusterNodes 	7
scalar RSUExampleScenario.node[75].appl 	meanClusterHeadUtility 	16.06221595358
scalar RSUExampleScenario.node[75].appl 	NumberofCH 	0.054054054054054
scalar RSUExampleScenario.node[75].appl 	NumberofON 	0.56756756756757
scalar RSUExampleScenario.node[75].appl 	NumberofFN 	0.37837837837838
scalar RSUExampleScenario.node[75].veinsmobility 	startTime 	180.8
scalar RSUExampleScenario.node[75].veinsmobility 	totalTime 	269.2
scalar RSUExampleScenario.node[75].veinsmobility 	stopTime 	450
scalar RSUExampleScenario.node[75].veinsmobility 	minSpeed 	0
scalar RSUExampleScenario.node[75].veinsmobility 	maxSpeed 	13.999792102447
scalar RSUExampleScenario.node[75].veinsmobility 	totalDistance 	658.04290075454
scalar RSUExampleScenario.node[75].veinsmobility 	totalCO2Emission 	380.41484860965
scalar RSUExampleScenario.node[76].appl 	meanClusterNodes 	5
scalar RSUExampleScenario.node[76].appl 	meanClusterHeadUtility 	8.3924251787698
scalar RSUExampleScenario.node[76].appl 	NumberofCH 	0.10810810810811
scalar RSUExampleScenario.node[76].appl 	NumberofON 	0.59459459459459
scalar RSUExampleScenario.node[76].appl 	NumberofFN 	0.2972972972973
scalar RSUExampleScenario.node[76].veinsmobility 	startTime 	183.2
scalar RSUExampleScenario.node[76].veinsmobility 	totalTime 	266.8
scalar RSUExampleScenario.node[76].veinsmobility 	stopTime 	450
scalar RSUExampleScenario.node[76].veinsmobility 	minSpeed 	0
scalar RSUExampleScenario.node[76].veinsmobility 	maxSpeed 	13.999110469241
scalar RSUExampleScenario.node[76].veinsmobility 	totalDistance 	623.5713172346
scalar RSUExampleScenario.node[76].veinsmobility 	totalCO2Emission 	372.20475681474
scalar RSUExampleScenario.node[77].appl 	meanClusterNodes 	11
scalar RSUExampleScenario.node[77].appl 	meanClusterHeadUtility 	34.695322000144
scalar RSUExampleScenario.node[77].appl 	NumberofCH 	0.027027027027027
scalar RSUExampleScenario.node[77].appl 	NumberofON 	0.37837837837838
scalar RSUExampleScenario.node[77].appl 	NumberofFN 	0.59459459459459
scalar RSUExampleScenario.node[77].veinsmobility 	startTime 	185.6
scalar RSUExampleScenario.node[77].veinsmobility 	totalTime 	264.4
scalar RSUExampleScenario.node[77].veinsmobility 	stopTime 	450
scalar RSUExampleScenario.node[77].veinsmobility 	minSpeed 	0
scalar RSUExampleScenario.node[77].veinsmobility 	maxSpeed 	13.996881030446
scalar RSUExampleScenario.node[77].veinsmobility 	totalDistance 	588.74685730518
scalar RSUExampleScenario.node[77].veinsmobility 	totalCO2Emission 	366.4253592592
scalar RSUExampleScenario.node[78].appl 	meanClusterNodes 	8.5
scalar RSUExampleScenario.node[78].appl 	meanClusterHeadUtility 	17.197350634284
scalar RSUExampleScenario.node[78].appl 	NumberofCH 	0.054054054054054
scalar RSUExampleScenario.node[78].appl 	NumberofON 	0.56756756756757
scalar RSUExampleScenario.node[78].appl 	NumberofFN 	0.37837837837838
scalar RSUExampleScenario.node[78].veinsmobility 	startTime 	188
scalar RSUExampleScenario.node[78].veinsmobility 	totalTime 	262
scalar RSUExampleScenario.node[78].veinsmobility 	stopTime 	450
scalar RSUExampleScenario.node[78].veinsmobility 	minSpeed 	0
scalar RSUExampleScenario.node[78].veinsmobility 	maxSpeed 	13.999572988942
scalar RSUExampleScenario.node[78].veinsmobility 	totalDistance 	555.63926190373
scalar RSUExampleScenario.node[78].veinsmobility 	totalCO2Emission 	362.01449240018
scalar RSUExampleScenario.node[79].appl 	meanClusterNodes 	8
scalar RSUExampleScenario.node[79].appl 	meanClusterHeadUtility 	17.131635836284
scalar RSUExampleScenario.node[79].appl 	NumberofCH 	0.054054054054054
scalar RSUExampleScenario.node[79].appl 	NumberofON 	0.24324324324324
scalar RSUExampleScenario.node[79].appl 	NumberofFN 	0.7027027027027
scalar RSUExampleScenario.node[79].veinsmobility 	startTime 	190.4
scalar RSUExampleScenario.node[79].veinsmobility 	totalTime 	259.6
scalar RSUExampleScenario.node[79].veinsmobility 	stopTime 	450
scalar RSUExampleScenario.node[79].veinsmobility 	minSpeed 	0
scalar RSUExampleScenario.node[79].veinsmobility 	maxSpeed 	13.999557395875
scalar RSUExampleScenario.node[79].veinsmobility 	totalDistance 	522.07466227668
scalar RSUExampleScenario.node[79].veinsmobility 	totalCO2Emission 	356.62870084356
scalar RSUExampleScenario.node[8].appl 	meanClusterNodes 	5.5
scalar RSUExampleScenario.node[8].appl 	meanClusterHeadUtility 	18.521685887221
scalar RSUExampleScenario.node[8].appl 	NumberofCH 	0.054054054054054
scalar RSUExampleScenario.node[8].appl 	NumberofON 	0.35135135135135
scalar RSUExampleScenario.node[8].appl 	NumberofFN 	0.59459459459459
scalar RSUExampleScenario.node[8].veinsmobility 	startTime 	19.3
scalar RSUExampleScenario.node[8].veinsmobility 	totalTime 	430.7
scalar RSUExampleScenario.node[8].veinsmobility 	stopTime 	450
scalar RSUExampleScenario.node[8].veinsmobility 	minSpeed 	0
scalar RSUExampleScenario.node[8].veinsmobility 	maxSpeed 	13.999865307079
scalar RSUExampleScenario.node[8].veinsmobility 	totalDistance 	2863.4261651899
scalar RSUExampleScenario.node[8].veinsmobility 	totalCO2Emission 	774.53132382632
scalar RSUExampleScenario.node[80].appl 	meanClusterNodes 	4.5
scalar RSUExampleScenario.node[80].appl 	meanClusterHeadUtility 	8.4105587898825
scalar RSUExampleScenario.node[80].appl 	NumberofCH 	0.10810810810811
scalar RSUExampleScenario.node[80].appl 	NumberofON 	0.32432432432432
scalar RSUExampleScenario.node[80].appl 	NumberofFN 	0.56756756756757
scalar RSUExampleScenario.node[80].veinsmobility 	startTime 	192.9
scalar RSUExampleScenario.node[80].veinsmobility 	totalTime 	257.1
scalar RSUExampleScenario.node[80].veinsmobility 	stopTime 	450
scalar RSUExampleScenario.node[80].veinsmobility 	minSpeed 	0
scalar RSUExampleScenario.node[80].veinsmobility 	maxSpeed 	13.99898901484
scalar RSUExampleScenario.node[80].veinsmobility 	totalDistance 	489.27111215644
scalar RSUExampleScenario.node[80].veinsmobility 	totalCO2Emission 	350.89647609997
scalar RSUExampleScenario.node[81].appl 	meanClusterNodes 	4
scalar RSUExampleScenario.node[81].appl 	meanClusterHeadUtility 	11.578940372181
scalar RSUExampleScenario.node[81].appl 	NumberofCH 	0.081081081081081
scalar RSUExampleScenario.node[81].appl 	NumberofON 	0.64864864864865
scalar RSUExampleScenario.node[81].appl 	NumberofFN 	0.27027027027027
scalar RSUExampleScenario.node[81].veinsmobility 	startTime 	195.3
scalar RSUExampleScenario.node[81].veinsmobility 	totalTime 	254.7
scalar RSUExampleScenario.node[81].veinsmobility 	stopTime 	450
scalar RSUExampleScenario.node[81].veinsmobility 	minSpeed 	0
scalar RSUExampleScenario.node[81].veinsmobility 	maxSpeed 	13.999798153683
scalar RSUExampleScenario.node[81].veinsmobility 	totalDistance 	455.3725242654
scalar RSUExampleScenario.node[81].veinsmobility 	totalCO2Emission 	345.65109670007
scalar RSUExampleScenario.node[82].appl 	meanClusterNodes 	6
scalar RSUExampleScenario.node[82].appl 	meanClusterHeadUtility 	8.9134471673864
scalar RSUExampleScenario.node[82].appl 	NumberofCH 	0.10810810810811
scalar RSUExampleScenario.node[82].appl 	NumberofON 	0.59459459459459
scalar RSUExampleScenario.node[82].appl 	NumberofFN 	0.2972972972973
scalar RSUExampleScenario.node[82].veinsmobility 	startTime 	197.7
scalar RSUExampleScenario.node[82].veinsmobility 	totalTime 	252.3
scalar RSUExampleScenario.node[82].veinsmobility 	stopTime 	450
scalar RSUExampleScenario.node[82].veinsmobility 	minSpeed 	0
scalar RSUExampleScenario.node[82].veinsmobility 	maxSpeed 	13.997899487894
scalar RSUExampleScenario.node[82].veinsmobility 	totalDistance 	421.86117692064
scalar RSUExampleScenario.node[82].veinsmobility 	totalCO2Emission 	338.88562498199
scalar RSUExampleScenario.node[83].appl 	meanClusterNodes 	3
scalar RSUExampleScenario.node[83].appl 	meanClusterHeadUtility 	16.290504531771
scalar RSUExampleScenario.node[83].appl 	NumberofCH 	0.054054054054054
scalar RSUExampleScenario.node[83].appl 	NumberofON 	0.62162162162162
scalar RSUExampleScenario.node[83].appl 	NumberofFN 	0.32432432432432
scalar RSUExampleScenario.node[83].veinsmobility 	startTime 	200.1
scalar RSUExampleScenario.node[83].veinsmobility 	totalTime 	249.9
scalar RSUExampleScenario.node[83].veinsmobility 	stopTime 	450
scalar RSUExampleScenario.node[83].veinsmobility 	minSpeed 	0
scalar RSUExampleScenario.node[83].veinsmobility 	maxSpeed 	13.999421777511
scalar RSUExampleScenario.node[83].veinsmobility 	totalDistance 	388.41908394146
scalar RSUExampleScenario.node[83].veinsmobility 	totalCO2Emission 	333.57242723909
scalar RSUExampleScenario.node[84].appl 	meanClusterNodes 	0
scalar RSUExampleScenario.node[84].appl 	meanClusterHeadUtility 	0
scalar RSUExampleScenario.node[84].appl 	NumberofCH 	0
scalar RSUExampleScenario.node[84].appl 	NumberofON 	0.54054054054054
scalar RSUExampleScenario.node[84].appl 	NumberofFN 	0.45945945945946
scalar RSUExampleScenario.node[84].veinsmobility 	startTime 	202.5
scalar RSUExampleScenario.node[84].veinsmobility 	totalTime 	247.5
scalar RSUExampleScenario.node[84].veinsmobility 	stopTime 	450
scalar RSUExampleScenario.node[84].veinsmobility 	minSpeed 	0
scalar RSUExampleScenario.node[84].veinsmobility 	maxSpeed 	13.999978317318
scalar RSUExampleScenario.node[84].veinsmobility 	totalDistance 	355.54896832528
scalar RSUExampleScenario.node[84].veinsmobility 	totalCO2Emission 	328.08157177524
scalar RSUExampleScenario.node[85].appl 	meanClusterNodes 	4.75
scalar RSUExampleScenario.node[85].appl 	meanClusterHeadUtility 	8.7770981307128
scalar RSUExampleScenario.node[85].appl 	NumberofCH 	0.10810810810811
scalar RSUExampleScenario.node[85].appl 	NumberofON 	0.59459459459459
scalar RSUExampleScenario.node[85].appl 	NumberofFN 	0.2972972972973
scalar RSUExampleScenario.node[85].veinsmobility 	startTime 	204.9
scalar RSUExampleScenario.node[85].veinsmobility 	totalTime 	245.1
scalar RSUExampleScenario.node[85].veinsmobility 	stopTime 	450
scalar RSUExampleScenario.node[85].veinsmobility 	minSpeed 	0
scalar RSUExampleScenario.node[85].veinsmobility 	maxSpeed 	13.99607146319
scalar RSUExampleScenario.node[85].veinsmobility 	totalDistance 	322.31892002398
scalar RSUExampleScenario.node[85].veinsmobility 	totalCO2Emission 	322.14515042381
scalar RSUExampleScenario.node[86].appl 	meanClusterNodes 	3.5
scalar RSUExampleScenario.node[86].appl 	meanClusterHeadUtility 	9.0972280114492
scalar RSUExampleScenario.node[86].appl 	NumberofCH 	0.10810810810811
scalar RSUExampleScenario.node[86].appl 	NumberofON 	0.40540540540541
scalar RSUExampleScenario.node[86].appl 	NumberofFN 	0.48648648648649
scalar RSUExampleScenario.node[86].veinsmobility 	startTime 	207.3
scalar RSUExampleScenario.node[86].veinsmobility 	totalTime 	242.7
scalar RSUExampleScenario.node[86].veinsmobility 	stopTime 	450
scalar RSUExampleScenario.node[86].veinsmobility 	minSpeed 	0
scalar RSUExampleScenario.node[86].veinsmobility 	maxSpeed 	13.853039006326
scalar RSUExampleScenario.node[86].veinsmobility 	totalDistance 	288.60966755163
scalar RSUExampleScenario.node[86].veinsmobility 	totalCO2Emission 	317.14283010164
scalar RSUExampleScenario.node[87].appl 	meanClusterNodes 	1.5
scalar RSUExampleScenario.node[87].appl 	meanClusterHeadUtility 	18.215555046474
scalar RSUExampleScenario.node[87].appl 	NumberofCH 	0.054054054054054
scalar RSUExa