version 2
run statistic1-62-20150314-03:20:26-24548
attr c 19
attr configname statistic1
attr datetime 20150314-03:20:26
attr experiment statistic1
attr inifile omnetpp.ini
attr iterationvars "$p=1/20, $c=19"
attr iterationvars2 "$p=1/20, $c=19, $repetition=62"
attr measurement "$p=1/20, $c=19"
attr network RSUExampleScenario
attr p 1/20
attr processid 24548
attr repetition 62
attr replication #62
attr resultdir results
attr runnumber 62
attr seedset 62

scalar . 	c 	19
scalar RSUExampleScenario.rsu[0].appl 	NumberofCH 	6
scalar RSUExampleScenario.rsu[0].appl 	NumberofON 	76
scalar RSUExampleScenario.rsu[0].appl 	NumberofFN 	18
scalar RSUExampleScenario.rsu[0].appl 	meanClusterNodes 	6
scalar RSUExampleScenario.rsu[0].appl 	varClusterNodes 	2.4494897427832
scalar RSUExampleScenario.rsu[0].appl 	sumCHutility 	217.33180328413
scalar RSUExampleScenario.rsu[0].appl 	meanCHutility 	6
scalar RSUExampleScenario.rsu[0].appl 	varCHutility 	2.4494897427832
scalar RSUExampleScenario.rsu[0].appl 	sumDiffCHutility 	-13.154062377716
scalar RSUExampleScenario.rsu[0].appl 	meanDiffCHutility 	6
scalar RSUExampleScenario.rsu[0].appl 	varDiffCHutility 	2.4494897427832
scalar RSUExampleScenario.rsu[0].appl 	expectedCHutility 	204.17774090641
scalar RSUExampleScenario.rsu[0].appl 	meanExpectedCHutility 	6
scalar RSUExampleScenario.rsu[0].appl 	varExpectedCHutility 	2.4494897427832
