version 2
run statisticLeach-80-20150323-02:33:59-9916
attr c 32
attr configname statisticLeach
attr datetime 20150323-02:33:59
attr experiment statisticLeach
attr inifile omnetpp.ini
attr iterationvars "$p=1/25, $c=32"
attr iterationvars2 "$p=1/25, $c=32, $repetition=0"
attr measurement "$p=1/25, $c=32"
attr network RSUExampleScenario
attr p 1/25
attr processid 9916
attr repetition 0
attr replication #0
attr resultdir results
attr runnumber 80
attr seedset 80

scalar . 	c 	32
scalar RSUExampleScenario.node[0].appl 	meanClusterNodes 	6.5
scalar RSUExampleScenario.node[0].appl 	meanClusterHeadUtility 	17.174000459296
scalar RSUExampleScenario.node[0].appl 	NumberofCH 	0.054054054054054
scalar RSUExampleScenario.node[0].appl 	NumberofON 	0.081081081081081
scalar RSUExampleScenario.node[0].appl 	NumberofFN 	0.86486486486486
scalar RSUExampleScenario.node[0].veinsmobility 	startTime 	0.1
scalar RSUExampleScenario.node[0].veinsmobility 	totalTime 	449.9
scalar RSUExampleScenario.node[0].veinsmobility 	stopTime 	450
scalar RSUExampleScenario.node[0].veinsmobility 	minSpeed 	0
scalar RSUExampleScenario.node[0].veinsmobility 	maxSpeed 	13.999971662024
scalar RSUExampleScenario.node[0].veinsmobility 	totalDistance 	3132.940613244
scalar RSUExampleScenario.node[0].veinsmobility 	totalCO2Emission 	839.66666002243
scalar RSUExampleScenario.node[1].appl 	meanClusterNodes 	0
scalar RSUExampleScenario.node[1].appl 	meanClusterHeadUtility 	0
scalar RSUExampleScenario.node[1].appl 	NumberofCH 	0
scalar RSUExampleScenario.node[1].appl 	NumberofON 	0.18918918918919
scalar RSUExampleScenario.node[1].appl 	NumberofFN 	0.81081081081081
scalar RSUExampleScenario.node[1].veinsmobility 	startTime 	2.5
scalar RSUExampleScenario.node[1].veinsmobility 	totalTime 	447.5
scalar RSUExampleScenario.node[1].veinsmobility 	stopTime 	450
scalar RSUExampleScenario.node[1].veinsmobility 	minSpeed 	0
scalar RSUExampleScenario.node[1].veinsmobility 	maxSpeed 	13.999981927986
scalar RSUExampleScenario.node[1].veinsmobility 	totalDistance 	3080.8530977967
scalar RSUExampleScenario.node[1].veinsmobility 	totalCO2Emission 	827.61877058483
scalar RSUExampleScenario.node[10].appl 	meanClusterNodes 	0
scalar RSUExampleScenario.node[10].appl 	meanClusterHeadUtility 	0
scalar RSUExampleScenario.node[10].appl 	NumberofCH 	0
scalar RSUExampleScenario.node[10].appl 	NumberofON 	0.27027027027027
scalar RSUExampleScenario.node[10].appl 	NumberofFN 	0.72972972972973
scalar RSUExampleScenario.node[10].veinsmobility 	startTime 	24.2
scalar RSUExampleScenario.node[10].veinsmobility 	totalTime 	425.8
scalar RSUExampleScenario.node[10].veinsmobility 	stopTime 	450
scalar RSUExampleScenario.node[10].veinsmobility 	minSpeed 	0
scalar RSUExampleScenario.node[10].veinsmobility 	maxSpeed 	13.999921681501
scalar RSUExampleScenario.node[10].veinsmobility 	totalDistance 	2794.9957255665
scalar RSUExampleScenario.node[10].veinsmobility 	totalCO2Emission 	762.32755371323
scalar RSUExampleScenario.node[11].appl 	meanClusterNodes 	3
scalar RSUExampleScenario.node[11].appl 	meanClusterHeadUtility 	11.650524389965
scalar RSUExampleScenario.node[11].appl 	NumberofCH 	0.081081081081081
scalar RSUExampleScenario.node[11].appl 	NumberofON 	0.37837837837838
scalar RSUExampleScenario.node[11].appl 	NumberofFN 	0.54054054054054
scalar RSUExampleScenario.node[11].veinsmobility 	startTime 	26.6
scalar RSUExampleScenario.node[11].veinsmobility 	totalTime 	423.4
scalar RSUExampleScenario.node[11].veinsmobility 	stopTime 	450
scalar RSUExampleScenario.node[11].veinsmobility 	minSpeed 	0
scalar RSUExampleScenario.node[11].veinsmobility 	maxSpeed 	13.9999535516
scalar RSUExampleScenario.node[11].veinsmobility 	totalDistance 	2754.2021449333
scalar RSUExampleScenario.node[11].veinsmobility 	totalCO2Emission 	757.53580323229
scalar RSUExampleScenario.node[12].appl 	meanClusterNodes 	5.5
scalar RSUExampleScenario.node[12].appl 	meanClusterHeadUtility 	18.25806451082
scalar RSUExampleScenario.node[12].appl 	NumberofCH 	0.054054054054054
scalar RSUExampleScenario.node[12].appl 	NumberofON 	0.43243243243243
scalar RSUExampleScenario.node[12].appl 	NumberofFN 	0.51351351351351
scalar RSUExampleScenario.node[12].veinsmobility 	startTime 	29
scalar RSUExampleScenario.node[12].veinsmobility 	totalTime 	421
scalar RSUExampleScenario.node[12].veinsmobility 	stopTime 	450
scalar RSUExampleScenario.node[12].veinsmobility 	minSpeed 	0
scalar RSUExampleScenario.node[12].veinsmobility 	maxSpeed 	13.999926708892
scalar RSUExampleScenario.node[12].veinsmobility 	totalDistance 	2723.9727101097
scalar RSUExampleScenario.node[12].veinsmobility 	totalCO2Emission 	746.79677188951
scalar RSUExampleScenario.node[13].appl 	meanClusterNodes 	10.5
scalar RSUExampleScenario.node[13].appl 	meanClusterHeadUtility 	17.435638560855
scalar RSUExampleScenario.node[13].appl 	NumberofCH 	0.054054054054054
scalar RSUExampleScenario.node[13].appl 	NumberofON 	0.21621621621622
scalar RSUExampleScenario.node[13].appl 	NumberofFN 	0.72972972972973
scalar RSUExampleScenario.node[13].veinsmobility 	startTime 	31.4
scalar RSUExampleScenario.node[13].veinsmobility 	totalTime 	418.6
scalar RSUExampleScenario.node[13].veinsmobility 	stopTime 	450
scalar RSUExampleScenario.node[13].veinsmobility 	minSpeed 	0
scalar RSUExampleScenario.node[13].veinsmobility 	maxSpeed 	13.999895939762
scalar RSUExampleScenario.node[13].veinsmobility 	totalDistance 	2680.1071393486
scalar RSUExampleScenario.node[13].veinsmobility 	totalCO2Emission 	740.75572992402
scalar RSUExampleScenario.node[14].appl 	meanClusterNodes 	6
scalar RSUExampleScenario.node[14].appl 	meanClusterHeadUtility 	16.758779132401
scalar RSUExampleScenario.node[14].appl 	NumberofCH 	0.054054054054054
scalar RSUExampleScenario.node[14].appl 	NumberofON 	0.48648648648649
scalar RSUExampleScenario.node[14].appl 	NumberofFN 	0.45945945945946
scalar RSUExampleScenario.node[14].veinsmobility 	startTime 	33.8
scalar RSUExampleScenario.node[14].veinsmobility 	totalTime 	416.2
scalar RSUExampleScenario.node[14].veinsmobility 	stopTime 	450
scalar RSUExampleScenario.node[14].veinsmobility 	minSpeed 	0
scalar RSUExampleScenario.node[14].veinsmobility 	maxSpeed 	13.999996853189
scalar RSUExampleScenario.node[14].veinsmobility 	totalDistance 	2652.451897782
scalar RSUExampleScenario.node[14].veinsmobility 	totalCO2Emission 	733.2209075704
scalar RSUExampleScenario.node[15].appl 	meanClusterNodes 	8.5
scalar RSUExampleScenario.node[15].appl 	meanClusterHeadUtility 	16.755157024491
scalar RSUExampleScenario.node[15].appl 	NumberofCH 	0.054054054054054
scalar RSUExampleScenario.node[15].appl 	NumberofON 	0.35135135135135
scalar RSUExampleScenario.node[15].appl 	NumberofFN 	0.59459459459459
scalar RSUExampleScenario.node[15].veinsmobility 	startTime 	36.2
scalar RSUExampleScenario.node[15].veinsmobility 	totalTime 	413.8
scalar RSUExampleScenario.node[15].veinsmobility 	stopTime 	450
scalar RSUExampleScenario.node[15].veinsmobility 	minSpeed 	0
scalar RSUExampleScenario.node[15].veinsmobility 	maxSpeed 	13.999766001063
scalar RSUExampleScenario.node[15].veinsmobility 	totalDistance 	2615.2570257971
scalar RSUExampleScenario.node[15].veinsmobility 	totalCO2Emission 	727.79085547278
scalar RSUExampleScenario.node[16].appl 	meanClusterNodes 	7
scalar RSUExampleScenario.node[16].appl 	meanClusterHeadUtility 	16.913463939831
scalar RSUExampleScenario.node[16].appl 	NumberofCH 	0.054054054054054
scalar RSUExampleScenario.node[16].appl 	NumberofON 	0.43243243243243
scalar RSUExampleScenario.node[16].appl 	NumberofFN 	0.51351351351351
scalar RSUExampleScenario.node[16].veinsmobility 	startTime 	38.6
scalar RSUExampleScenario.node[16].veinsmobility 	totalTime 	411.4
scalar RSUExampleScenario.node[16].veinsmobility 	stopTime 	450
scalar RSUExampleScenario.node[16].veinsmobility 	minSpeed 	0
scalar RSUExampleScenario.node[16].veinsmobility 	maxSpeed 	13.999989481452
scalar RSUExampleScenario.node[16].veinsmobility 	totalDistance 	2582.742888881
scalar RSUExampleScenario.node[16].veinsmobility 	totalCO2Emission 	721.70134505559
scalar RSUExampleScenario.node[17].appl 	meanClusterNodes 	9.5
scalar RSUExampleScenario.node[17].appl 	meanClusterHeadUtility 	17.402654521974
scalar RSUExampleScenario.node[17].appl 	NumberofCH 	0.054054054054054
scalar RSUExampleScenario.node[17].appl 	NumberofON 	0.43243243243243
scalar RSUExampleScenario.node[17].appl 	NumberofFN 	0.51351351351351
scalar RSUExampleScenario.node[17].veinsmobility 	startTime 	41
scalar RSUExampleScenario.node[17].veinsmobility 	totalTime 	409
scalar RSUExampleScenario.node[17].veinsmobility 	stopTime 	450
scalar RSUExampleScenario.node[17].veinsmobility 	minSpeed 	0
scalar RSUExampleScenario.node[17].veinsmobility 	maxSpeed 	13.999998261407
scalar RSUExampleScenario.node[17].veinsmobility 	totalDistance 	2539.2015614878
scalar RSUExampleScenario.node[17].veinsmobility 	totalCO2Emission 	717.30629158509
scalar RSUExampleScenario.node[18].appl 	meanClusterNodes 	0
scalar RSUExampleScenario.node[18].appl 	meanClusterHeadUtility 	0
scalar RSUExampleScenario.node[18].appl 	NumberofCH 	0
scalar RSUExampleScenario.node[18].appl 	NumberofON 	0.40540540540541
scalar RSUExampleScenario.node[18].appl 	NumberofFN 	0.59459459459459
scalar RSUExampleScenario.node[18].veinsmobility 	startTime 	43.4
scalar RSUExampleScenario.node[18].veinsmobility 	totalTime 	406.6
scalar RSUExampleScenario.node[18].veinsmobility 	stopTime 	450
scalar RSUExampleScenario.node[18].veinsmobility 	minSpeed 	0
scalar RSUExampleScenario.node[18].veinsmobility 	maxSpeed 	13.999971752767
scalar RSUExampleScenario.node[18].veinsmobility 	totalDistance 	2509.2435398817
scalar RSUExampleScenario.node[18].veinsmobility 	totalCO2Emission 	713.61188844819
scalar RSUExampleScenario.node[19].appl 	meanClusterNodes 	11.5
scalar RSUExampleScenario.node[19].appl 	meanClusterHeadUtility 	16.95978078494
scalar RSUExampleScenario.node[19].appl 	NumberofCH 	0.054054054054054
scalar RSUExampleScenario.node[19].appl 	NumberofON 	0.24324324324324
scalar RSUExampleScenario.node[19].appl 	NumberofFN 	0.7027027027027
scalar RSUExampleScenario.node[19].veinsmobility 	startTime 	45.8
scalar RSUExampleScenario.node[19].veinsmobility 	totalTime 	404.2
scalar RSUExampleScenario.node[19].veinsmobility 	stopTime 	450
scalar RSUExampleScenario.node[19].veinsmobility 	minSpeed 	0
scalar RSUExampleScenario.node[19].veinsmobility 	maxSpeed 	13.999991798981
scalar RSUExampleScenario.node[19].veinsmobility 	totalDistance 	2469.5266389457
scalar RSUExampleScenario.node[19].veinsmobility 	totalCO2Emission 	705.63027617887
scalar RSUExampleScenario.node[2].appl 	meanClusterNodes 	5
scalar RSUExampleScenario.node[2].appl 	meanClusterHeadUtility 	18.380878018586
scalar RSUExampleScenario.node[2].appl 	NumberofCH 	0.054054054054054
scalar RSUExampleScenario.node[2].appl 	NumberofON 	0.13513513513514
scalar RSUExampleScenario.node[2].appl 	NumberofFN 	0.81081081081081
scalar RSUExampleScenario.node[2].veinsmobility 	startTime 	4.9
scalar RSUExampleScenario.node[2].veinsmobility 	totalTime 	445.1
scalar RSUExampleScenario.node[2].veinsmobility 	stopTime 	450
scalar RSUExampleScenario.node[2].veinsmobility 	minSpeed 	0
scalar RSUExampleScenario.node[2].veinsmobility 	maxSpeed 	13.999923518223
scalar RSUExampleScenario.node[2].veinsmobility 	totalDistance 	3038.4230650318
scalar RSUExampleScenario.node[2].veinsmobility 	totalCO2Emission 	820.17500682083
scalar RSUExampleScenario.node[20].appl 	meanClusterNodes 	6.6666666666667
scalar RSUExampleScenario.node[20].appl 	meanClusterHeadUtility 	11.469401203381
scalar RSUExampleScenario.node[20].appl 	NumberofCH 	0.081081081081081
scalar RSUExampleScenario.node[20].appl 	NumberofON 	0.43243243243243
scalar RSUExampleScenario.node[20].appl 	NumberofFN 	0.48648648648649
scalar RSUExampleScenario.node[20].veinsmobility 	startTime 	48.3
scalar RSUExampleScenario.node[20].veinsmobility 	totalTime 	401.7
scalar RSUExampleScenario.node[20].veinsmobility 	stopTime 	450
scalar RSUExampleScenario.node[20].veinsmobility 	minSpeed 	0
scalar RSUExampleScenario.node[20].veinsmobility 	maxSpeed 	13.999472468635
scalar RSUExampleScenario.node[20].veinsmobility 	totalDistance 	2440.2338028493
scalar RSUExampleScenario.node[20].veinsmobility 	totalCO2Emission 	703.27233943908
scalar RSUExampleScenario.node[21].appl 	meanClusterNodes 	9
scalar RSUExampleScenario.node[21].appl 	meanClusterHeadUtility 	18.012048377723
scalar RSUExampleScenario.node[21].appl 	NumberofCH 	0.054054054054054
scalar RSUExampleScenario.node[21].appl 	NumberofON 	0.37837837837838
scalar RSUExampleScenario.node[21].appl 	NumberofFN 	0.56756756756757
scalar RSUExampleScenario.node[21].veinsmobility 	startTime 	50.7
scalar RSUExampleScenario.node[21].veinsmobility 	totalTime 	399.3
scalar RSUExampleScenario.node[21].veinsmobility 	stopTime 	450
scalar RSUExampleScenario.node[21].veinsmobility 	minSpeed 	0
scalar RSUExampleScenario.node[21].veinsmobility 	maxSpeed 	13.999880329079
scalar RSUExampleScenario.node[21].veinsmobility 	totalDistance 	2403.0533402438
scalar RSUExampleScenario.node[21].veinsmobility 	totalCO2Emission 	697.04301556975
scalar RSUExampleScenario.node[22].appl 	meanClusterNodes 	3.5
scalar RSUExampleScenario.node[22].appl 	meanClusterHeadUtility 	17.799140859056
scalar RSUExampleScenario.node[22].appl 	NumberofCH 	0.054054054054054
scalar RSUExampleScenario.node[22].appl 	NumberofON 	0.54054054054054
scalar RSUExampleScenario.node[22].appl 	NumberofFN 	0.40540540540541
scalar RSUExampleScenario.node[22].veinsmobility 	startTime 	53.1
scalar RSUExampleScenario.node[22].veinsmobility 	totalTime 	396.9
scalar RSUExampleScenario.node[22].veinsmobility 	stopTime 	450
scalar RSUExampleScenario.node[22].veinsmobility 	minSpeed 	0
scalar RSUExampleScenario.node[22].veinsmobility 	maxSpeed 	13.999620676695
scalar RSUExampleScenario.node[22].veinsmobility 	totalDistance 	2373.5572140254
scalar RSUExampleScenario.node[22].veinsmobility 	totalCO2Emission 	689.55775627467
scalar RSUExampleScenario.node[23].appl 	meanClusterNodes 	6
scalar RSUExampleScenario.node[23].appl 	meanClusterHeadUtility 	17.425065912052
scalar RSUExampleScenario.node[23].appl 	NumberofCH 	0.054054054054054
scalar RSUExampleScenario.node[23].appl 	NumberofON 	0.40540540540541
scalar RSUExampleScenario.node[23].appl 	NumberofFN 	0.54054054054054
scalar RSUExampleScenario.node[23].veinsmobility 	startTime 	55.5
scalar RSUExampleScenario.node[23].veinsmobility 	totalTime 	394.5
scalar RSUExampleScenario.node[23].veinsmobility 	stopTime 	450
scalar RSUExampleScenario.node[23].veinsmobility 	minSpeed 	0
scalar RSUExampleScenario.node[23].veinsmobility 	maxSpeed 	13.999713234464
scalar RSUExampleScenario.node[23].veinsmobility 	totalDistance 	2333.2789855369
scalar RSUExampleScenario.node[23].veinsmobility 	totalCO2Emission 	683.01350534391
scalar RSUExampleScenario.node[24].appl 	meanClusterNodes 	7.3333333333333
scalar RSUExampleScenario.node[24].appl 	meanClusterHeadUtility 	10.465585531056
scalar RSUExampleScenario.node[24].appl 	NumberofCH 	0.081081081081081
scalar RSUExampleScenario.node[24].appl 	NumberofON 	0.43243243243243
scalar RSUExampleScenario.node[24].appl 	NumberofFN 	0.48648648648649
scalar RSUExampleScenario.node[24].veinsmobility 	startTime 	57.9
scalar RSUExampleScenario.node[24].veinsmobility 	totalTime 	392.1
scalar RSUExampleScenario.node[24].veinsmobility 	stopTime 	450
scalar RSUExampleScenario.node[24].veinsmobility 	minSpeed 	0
scalar RSUExampleScenario.node[24].veinsmobility 	maxSpeed 	13.999963424683
scalar RSUExampleScenario.node[24].veinsmobility 	totalDistance 	2305.4757491995
scalar RSUExampleScenario.node[24].veinsmobility 	totalCO2Emission 	677.54394828165
scalar RSUExampleScenario.node[25].appl 	meanClusterNodes 	0
scalar RSUExampleScenario.node[25].appl 	meanClusterHeadUtility 	0
scalar RSUExampleScenario.node[25].appl 	NumberofCH 	0
scalar RSUExampleScenario.node[25].appl 	NumberofON 	0.59459459459459
scalar RSUExampleScenario.node[25].appl 	NumberofFN 	0.40540540540541
scalar RSUExampleScenario.node[25].veinsmobility 	startTime 	60.3
scalar RSUExampleScenario.node[25].veinsmobility 	totalTime 	389.7
scalar RSUExampleScenario.node[25].veinsmobility 	stopTime 	450
scalar RSUExampleScenario.node[25].veinsmobility 	minSpeed 	0
scalar RSUExampleScenario.node[25].veinsmobility 	maxSpeed 	13.999989466923
scalar RSUExampleScenario.node[25].veinsmobility 	totalDistance 	2265.2413069695
scalar RSUExampleScenario.node[25].veinsmobility 	totalCO2Emission 	673.27700813722
scalar RSUExampleScenario.node[26].appl 	meanClusterNodes 	8.5
scalar RSUExampleScenario.node[26].appl 	meanClusterHeadUtility 	17.824589778126
scalar RSUExampleScenario.node[26].appl 	NumberofCH 	0.054054054054054
scalar RSUExampleScenario.node[26].appl 	NumberofON 	0.40540540540541
scalar RSUExampleScenario.node[26].appl 	NumberofFN 	0.54054054054054
scalar RSUExampleScenario.node[26].veinsmobility 	startTime 	62.7
scalar RSUExampleScenario.node[26].veinsmobility 	totalTime 	387.3
scalar RSUExampleScenario.node[26].veinsmobility 	stopTime 	450
scalar RSUExampleScenario.node[26].veinsmobility 	minSpeed 	0
scalar RSUExampleScenario.node[26].veinsmobility 	maxSpeed 	13.999992900766
scalar RSUExampleScenario.node[26].veinsmobility 	totalDistance 	2237.255767161
scalar RSUExampleScenario.node[26].veinsmobility 	totalCO2Emission 	663.46634834338
scalar RSUExampleScenario.node[27].appl 	meanClusterNodes 	10
scalar RSUExampleScenario.node[27].appl 	meanClusterHeadUtility 	17.206543364639
scalar RSUExampleScenario.node[27].appl 	NumberofCH 	0.054054054054054
scalar RSUExampleScenario.node[27].appl 	NumberofON 	0.32432432432432
scalar RSUExampleScenario.node[27].appl 	NumberofFN 	0.62162162162162
scalar RSUExampleScenario.node[27].veinsmobility 	startTime 	65.1
scalar RSUExampleScenario.node[27].veinsmobility 	totalTime 	384.9
scalar RSUExampleScenario.node[27].veinsmobility 	stopTime 	450
scalar RSUExampleScenario.node[27].veinsmobility 	minSpeed 	0
scalar RSUExampleScenario.node[27].veinsmobility 	maxSpeed 	13.999979943435
scalar RSUExampleScenario.node[27].veinsmobility 	totalDistance 	2198.9416433494
scalar RSUExampleScenario.node[27].veinsmobility 	totalCO2Emission 	656.1803283324
scalar RSUExampleScenario.node[28].appl 	meanClusterNodes 	2
scalar RSUExampleScenario.node[28].appl 	meanClusterHeadUtility 	15.96827606966
scalar RSUExampleScenario.node[28].appl 	NumberofCH 	0.054054054054054
scalar RSUExampleScenario.node[28].appl 	NumberofON 	0.59459459459459
scalar RSUExampleScenario.node[28].appl 	NumberofFN 	0.35135135135135
scalar RSUExampleScenario.node[28].veinsmobility 	startTime 	67.5
scalar RSUExampleScenario.node[28].veinsmobility 	totalTime 	382.5
scalar RSUExampleScenario.node[28].veinsmobility 	stopTime 	450
scalar RSUExampleScenario.node[28].veinsmobility 	minSpeed 	0
scalar RSUExampleScenario.node[28].veinsmobility 	maxSpeed 	13.999971222321
scalar RSUExampleScenario.node[28].veinsmobility 	totalDistance 	2168.0923704033
scalar RSUExampleScenario.node[28].veinsmobility 	totalCO2Emission 	652.74534751569
scalar RSUExampleScenario.node[29].appl 	meanClusterNodes 	8.5
scalar RSUExampleScenario.node[29].appl 	meanClusterHeadUtility 	16.23305582678
scalar RSUExampleScenario.node[29].appl 	NumberofCH 	0.054054054054054
scalar RSUExampleScenario.node[29].appl 	NumberofON 	0.45945945945946
scalar RSUExampleScenario.node[29].appl 	NumberofFN 	0.48648648648649
scalar RSUExampleScenario.node[29].veinsmobility 	startTime 	69.9
scalar RSUExampleScenario.node[29].veinsmobility 	totalTime 	380.1
scalar RSUExampleScenario.node[29].veinsmobility 	stopTime 	450
scalar RSUExampleScenario.node[29].veinsmobility 	minSpeed 	0
scalar RSUExampleScenario.node[29].veinsmobility 	maxSpeed 	13.999934473962
scalar RSUExampleScenario.node[29].veinsmobility 	totalDistance 	2132.0637716332
scalar RSUExampleScenario.node[29].veinsmobility 	totalCO2Emission 	653.31038303383
scalar RSUExampleScenario.node[3].appl 	meanClusterNodes 	3
scalar RSUExampleScenario.node[3].appl 	meanClusterHeadUtility 	18.045701301107
scalar RSUExampleScenario.node[3].appl 	NumberofCH 	0.054054054054054
scalar RSUExampleScenario.node[3].appl 	NumberofON 	0.27027027027027
scalar RSUExampleScenario.node[3].appl 	NumberofFN 	0.67567567567568
scalar RSUExampleScenario.node[3].veinsmobility 	startTime 	7.3
scalar RSUExampleScenario.node[3].veinsmobility 	totalTime 	442.7
scalar RSUExampleScenario.node[3].veinsmobility 	stopTime 	450
scalar RSUExampleScenario.node[3].veinsmobility 	minSpeed 	0
scalar RSUExampleScenario.node[3].veinsmobility 	maxSpeed 	13.999827827627
scalar RSUExampleScenario.node[3].veinsmobility 	totalDistance 	2992.3292436279
scalar RSUExampleScenario.node[3].veinsmobility 	totalCO2Emission 	817.29030031616
scalar RSUExampleScenario.node[30].appl 	meanClusterNodes 	4.5
scalar RSUExampleScenario.node[30].appl 	meanClusterHeadUtility 	17.130675935311
scalar RSUExampleScenario.node[30].appl 	NumberofCH 	0.054054054054054
scalar RSUExampleScenario.node[30].appl 	NumberofON 	0.56756756756757
scalar RSUExampleScenario.node[30].appl 	NumberofFN 	0.37837837837838
scalar RSUExampleScenario.node[30].veinsmobility 	startTime 	72.4
scalar RSUExampleScenario.node[30].veinsmobility 	totalTime 	377.6
scalar RSUExampleScenario.node[30].veinsmobility 	stopTime 	450
scalar RSUExampleScenario.node[30].veinsmobility 	minSpeed 	0
scalar RSUExampleScenario.node[30].veinsmobility 	maxSpeed 	13.999794950755
scalar RSUExampleScenario.node[30].veinsmobility 	totalDistance 	2101.3033695832
scalar RSUExampleScenario.node[30].veinsmobility 	totalCO2Emission 	641.94525576495
scalar RSUExampleScenario.node[31].appl 	meanClusterNodes 	0
scalar RSUExampleScenario.node[31].appl 	meanClusterHeadUtility 	0
scalar RSUExampleScenario.node[31].appl 	NumberofCH 	0
scalar RSUExampleScenario.node[31].appl 	NumberofON 	0.37837837837838
scalar RSUExampleScenario.node[31].appl 	NumberofFN 	0.62162162162162
scalar RSUExampleScenario.node[31].veinsmobility 	startTime 	74.8
scalar RSUExampleScenario.node[31].veinsmobility 	totalTime 	375.2
scalar RSUExampleScenario.node[31].veinsmobility 	stopTime 	450
scalar RSUExampleScenario.node[31].veinsmobility 	minSpeed 	0
scalar RSUExampleScenario.node[31].veinsmobility 	maxSpeed 	13.999967512132
scalar RSUExampleScenario.node[31].veinsmobility 	totalDistance 	2064.7578695525
scalar RSUExampleScenario.node[31].veinsmobility 	totalCO2Emission 	639.24398309103
scalar RSUExampleScenario.node[32].appl 	meanClusterNodes 	6.5
scalar RSUExampleScenario.node[32].appl 	meanClusterHeadUtility 	8.3247760576912
scalar RSUExampleScenario.node[32].appl 	NumberofCH 	0.10810810810811
scalar RSUExampleScenario.node[32].appl 	NumberofON 	0.35135135135135
scalar RSUExampleScenario.node[32].appl 	NumberofFN 	0.54054054054054
scalar RSUExampleScenario.node[32].veinsmobility 	startTime 	77.2
scalar RSUExampleScenario.node[32].veinsmobility 	totalTime 	372.8
scalar RSUExampleScenario.node[32].veinsmobility 	stopTime 	450
scalar RSUExampleScenario.node[32].veinsmobility 	minSpeed 	0
scalar RSUExampleScenario.node[32].veinsmobility 	maxSpeed 	13.999924818324
scalar RSUExampleScenario.node[32].veinsmobility 	totalDistance 	2032.0002585626
scalar RSUExampleScenario.node[32].veinsmobility 	totalCO2Emission 	635.10563354738
scalar RSUExampleScenario.node[33].appl 	meanClusterNodes 	0
scalar RSUExampleScenario.node[33].appl 	meanClusterHeadUtility 	0
scalar RSUExampleScenario.node[33].appl 	NumberofCH 	0
scalar RSUExampleScenario.node[33].appl 	NumberofON 	0.35135135135135
scalar RSUExampleScenario.node[33].appl 	NumberofFN 	0.64864864864865
scalar RSUExampleScenario.node[33].veinsmobility 	startTime 	79.6
scalar RSUExampleScenario.node[33].veinsmobility 	totalTime 	370.4
scalar RSUExampleScenario.node[33].veinsmobility 	stopTime 	450
scalar RSUExampleScenario.node[33].veinsmobility 	minSpeed 	0
scalar RSUExampleScenario.node[33].veinsmobility 	maxSpeed 	13.999872067766
scalar RSUExampleScenario.node[33].veinsmobility 	totalDistance 	1997.9257497842
scalar RSUExampleScenario.node[33].veinsmobility 	totalCO2Emission 	628.78434820872
scalar RSUExampleScenario.node[34].appl 	meanClusterNodes 	0
scalar RSUExampleScenario.node[34].appl 	meanClusterHeadUtility 	0
scalar RSUExampleScenario.node[34].appl 	NumberofCH 	0
scalar RSUExampleScenario.node[34].appl 	NumberofON 	0.54054054054054
scalar RSUExampleScenario.node[34].appl 	NumberofFN 	0.45945945945946
scalar RSUExampleScenario.node[34].veinsmobility 	startTime 	82
scalar RSUExampleScenario.node[34].veinsmobility 	totalTime 	368
scalar RSUExampleScenario.node[34].veinsmobility 	stopTime 	450
scalar RSUExampleScenario.node[34].veinsmobility 	minSpeed 	0
scalar RSUExampleScenario.node[34].veinsmobility 	maxSpeed 	13.999929904949
scalar RSUExampleScenario.node[34].veinsmobility 	totalDistance 	1965.7289608135
scalar RSUExampleScenario.node[34].veinsmobility 	totalCO2Emission 	621.4494467779
scalar RSUExampleScenario.node[35].appl 	meanClusterNodes 	6.3333333333333
scalar RSUExampleScenario.node[35].appl 	meanClusterHeadUtility 	10.88748851998
scalar RSUExampleScenario.node[35].appl 	NumberofCH 	0.081081081081081
scalar RSUExampleScenario.node[35].appl 	NumberofON 	0.21621621621622
scalar RSUExampleScenario.node[35].appl 	NumberofFN 	0.7027027027027
scalar RSUExampleScenario.node[35].veinsmobility 	startTime 	84.4
scalar RSUExampleScenario.node[35].veinsmobility 	totalTime 	365.6
scalar RSUExampleScenario.node[35].veinsmobility 	stopTime 	450
scalar RSUExampleScenario.node[35].veinsmobility 	minSpeed 	0
scalar RSUExampleScenario.node[35].veinsmobility 	maxSpeed 	13.999989205832
scalar RSUExampleScenario.node[35].veinsmobility 	totalDistance 	1931.3059702779
scalar RSUExampleScenario.node[35].veinsmobility 	totalCO2Emission 	616.96835170571
scalar RSUExampleScenario.node[36].appl 	meanClusterNodes 	5
scalar RSUExampleScenario.node[36].appl 	meanClusterHeadUtility 	15.908421059191
scalar RSUExampleScenario.node[36].appl 	NumberofCH 	0.054054054054054
scalar RSUExampleScenario.node[36].appl 	NumberofON 	0.54054054054054
scalar RSUExampleScenario.node[36].appl 	NumberofFN 	0.40540540540541
scalar RSUExampleScenario.node[36].veinsmobility 	startTime 	86.8
scalar RSUExampleScenario.node[36].veinsmobility 	totalTime 	363.2
scalar RSUExampleScenario.node[36].veinsmobility 	stopTime 	450
scalar RSUExampleScenario.node[36].veinsmobility 	minSpeed 	0
scalar RSUExampleScenario.node[36].veinsmobility 	maxSpeed 	13.99995941584
scalar RSUExampleScenario.node[36].veinsmobility 	totalDistance 	1898.6832252147
scalar RSUExampleScenario.node[36].veinsmobility 	totalCO2Emission 	608.32356788439
scalar RSUExampleScenario.node[37].appl 	meanClusterNodes 	4
scalar RSUExampleScenario.node[37].appl 	meanClusterHeadUtility 	18.424058706937
scalar RSUExampleScenario.node[37].appl 	NumberofCH 	0.054054054054054
scalar RSUExampleScenario.node[37].appl 	NumberofON 	0.43243243243243
scalar RSUExampleScenario.node[37].appl 	NumberofFN 	0.51351351351351
scalar RSUExampleScenario.node[37].veinsmobility 	startTime 	89.2
scalar RSUExampleScenario.node[37].veinsmobility 	totalTime 	360.8
scalar RSUExampleScenario.node[37].veinsmobility 	stopTime 	450
scalar RSUExampleScenario.node[37].veinsmobility 	minSpeed 	0
scalar RSUExampleScenario.node[37].veinsmobility 	maxSpeed 	13.999945110979
scalar RSUExampleScenario.node[37].veinsmobility 	totalDistance 	1865.3828822774
scalar RSUExampleScenario.node[37].veinsmobility 	totalCO2Emission 	604.57479355558
scalar RSUExampleScenario.node[38].appl 	meanClusterNodes 	5
scalar RSUExampleScenario.node[38].appl 	meanClusterHeadUtility 	16.483862369799
scalar RSUExampleScenario.node[38].appl 	NumberofCH 	0.054054054054054
scalar RSUExampleScenario.node[38].appl 	NumberofON 	0.48648648648649
scalar RSUExampleScenario.node[38].appl 	NumberofFN 	0.45945945945946
scalar RSUExampleScenario.node[38].veinsmobility 	startTime 	91.6
scalar RSUExampleScenario.node[38].veinsmobility 	totalTime 	358.4
scalar RSUExampleScenario.node[38].veinsmobility 	stopTime 	450
scalar RSUExampleScenario.node[38].veinsmobility 	minSpeed 	0
scalar RSUExampleScenario.node[38].veinsmobility 	maxSpeed 	13.999913646714
scalar RSUExampleScenario.node[38].veinsmobility 	totalDistance 	1830.3057196887
scalar RSUExampleScenario.node[38].veinsmobility 	totalCO2Emission 	597.33512423797
scalar RSUExampleScenario.node[39].appl 	meanClusterNodes 	11.5
scalar RSUExampleScenario.node[39].appl 	meanClusterHeadUtility 	17.347802394427
scalar RSUExampleScenario.node[39].appl 	NumberofCH 	0.054054054054054
scalar RSUExampleScenario.node[39].appl 	NumberofON 	0.24324324324324
scalar RSUExampleScenario.node[39].appl 	NumberofFN 	0.7027027027027
scalar RSUExampleScenario.node[39].veinsmobility 	startTime 	94
scalar RSUExampleScenario.node[39].veinsmobility 	totalTime 	356
scalar RSUExampleScenario.node[39].veinsmobility 	stopTime 	450
scalar RSUExampleScenario.node[39].veinsmobility 	minSpeed 	0
scalar RSUExampleScenario.node[39].veinsmobility 	maxSpeed 	13.999976565801
scalar RSUExampleScenario.node[39].veinsmobility 	totalDistance 	1797.8655610172
scalar RSUExampleScenario.node[39].veinsmobility 	totalCO2Emission 	592.46829067657
scalar RSUExampleScenario.node[4].appl 	meanClusterNodes 	6.5
scalar RSUExampleScenario.node[4].appl 	meanClusterHeadUtility 	18.996449753116
scalar RSUExampleScenario.node[4].appl 	NumberofCH 	0.054054054054054
scalar RSUExampleScenario.node[4].appl 	NumberofON 	0.32432432432432
scalar RSUExampleScenario.node[4].appl 	NumberofFN 	0.62162162162162
scalar RSUExampleScenario.node[4].veinsmobility 	startTime 	9.7
scalar RSUExampleScenario.node[4].veinsmobility 	totalTime 	440.3
scalar RSUExampleScenario.node[4].veinsmobility 	stopTime 	450
scalar RSUExampleScenario.node[4].veinsmobility 	minSpeed 	0
scalar RSUExampleScenario.node[4].veinsmobility 	maxSpeed 	13.999982668492
scalar RSUExampleScenario.node[4].veinsmobility 	totalDistance 	2950.7706424439
scalar RSUExampleScenario.node[4].veinsmobility 	totalCO2Emission 	797.47618698564
scalar RSUExampleScenario.node[40].appl 	meanClusterNodes 	7.5
scalar RSUExampleScenario.node[40].appl 	meanClusterHeadUtility 	16.235830258688
scalar RSUExampleScenario.node[40].appl 	NumberofCH 	0.054054054054054
scalar RSUExampleScenario.node[40].appl 	NumberofON 	0.45945945945946
scalar RSUExampleScenario.node[40].appl 	NumberofFN 	0.48648648648649
scalar RSUExampleScenario.node[40].veinsmobility 	startTime 	96.5
scalar RSUExampleScenario.node[40].veinsmobility 	totalTime 	353.5
scalar RSUExampleScenario.node[40].veinsmobility 	stopTime 	450
scalar RSUExampleScenario.node[40].veinsmobility 	minSpeed 	0
scalar RSUExampleScenario.node[40].veinsmobility 	maxSpeed 	13.99999679904
scalar RSUExampleScenario.node[40].veinsmobility 	totalDistance 	1763.4235794271
scalar RSUExampleScenario.node[40].veinsmobility 	totalCO2Emission 	590.86713253069
scalar RSUExampleScenario.node[41].appl 	meanClusterNodes 	0
scalar RSUExampleScenario.node[41].appl 	meanClusterHeadUtility 	0
scalar RSUExampleScenario.node[41].appl 	NumberofCH 	0
scalar RSUExampleScenario.node[41].appl 	NumberofON 	0.43243243243243
scalar RSUExampleScenario.node[41].appl 	NumberofFN 	0.56756756756757
scalar RSUExampleScenario.node[41].veinsmobility 	startTime 	98.9
scalar RSUExampleScenario.node[41].veinsmobility 	totalTime 	351.1
scalar RSUExampleScenario.node[41].veinsmobility 	stopTime 	450
scalar RSUExampleScenario.node[41].veinsmobility 	minSpeed 	0
scalar RSUExampleScenario.node[41].veinsmobility 	maxSpeed 	13.99979142169
scalar RSUExampleScenario.node[41].veinsmobility 	totalDistance 	1729.2722840922
scalar RSUExampleScenario.node[41].veinsmobility 	totalCO2Emission 	582.89281116637
scalar RSUExampleScenario.node[42].appl 	meanClusterNodes 	0
scalar RSUExampleScenario.node[42].appl 	meanClusterHeadUtility 	0
scalar RSUExampleScenario.node[42].appl 	NumberofCH 	0
scalar RSUExampleScenario.node[42].appl 	NumberofON 	0.48648648648649
scalar RSUExampleScenario.node[42].appl 	NumberofFN 	0.51351351351351
scalar RSUExampleScenario.node[42].veinsmobility 	startTime 	101.3
scalar RSUExampleScenario.node[42].veinsmobility 	totalTime 	348.7
scalar RSUExampleScenario.node[42].veinsmobility 	stopTime 	450
scalar RSUExampleScenario.node[42].veinsmobility 	minSpeed 	0
scalar RSUExampleScenario.node[42].veinsmobility 	maxSpeed 	13.999988417593
scalar RSUExampleScenario.node[42].veinsmobility 	totalDistance 	1696.8789871158
scalar RSUExampleScenario.node[42].veinsmobility 	totalCO2Emission 	577.55900571153
scalar RSUExampleScenario.node[43].appl 	meanClusterNodes 	12
scalar RSUExampleScenario.node[43].appl 	meanClusterHeadUtility 	17.40706474043
scalar RSUExampleScenario.node[43].appl 	NumberofCH 	0.054054054054054
scalar RSUExampleScenario.node[43].appl 	NumberofON 	0.24324324324324
scalar RSUExampleScenario.node[43].appl 	NumberofFN 	0.7027027027027
scalar RSUExampleScenario.node[43].veinsmobility 	startTime 	103.7
scalar RSUExampleScenario.node[43].veinsmobility 	totalTime 	346.3
scalar RSUExampleScenario.node[43].veinsmobility 	stopTime 	450
scalar RSUExampleScenario.node[43].veinsmobility 	minSpeed 	0
scalar RSUExampleScenario.node[43].veinsmobility 	maxSpeed 	13.999862656693
scalar RSUExampleScenario.node[43].veinsmobility 	totalDistance 	1663.0365195852
scalar RSUExampleScenario.node[43].veinsmobility 	totalCO2Emission 	570.95062040864
scalar RSUExampleScenario.node[44].appl 	meanClusterNodes 	0
scalar RSUExampleScenario.node[44].appl 	meanClusterHeadUtility 	0
scalar RSUExampleScenario.node[44].appl 	NumberofCH 	0
scalar RSUExampleScenario.node[44].appl 	NumberofON 	0.51351351351351
scalar RSUExampleScenario.node[44].appl 	NumberofFN 	0.48648648648649
scalar RSUExampleScenario.node[44].veinsmobility 	startTime 	106.1
scalar RSUExampleScenario.node[44].veinsmobility 	totalTime 	343.9
scalar RSUExampleScenario.node[44].veinsmobility 	stopTime 	450
scalar RSUExampleScenario.node[44].veinsmobility 	minSpeed 	0
scalar RSUExampleScenario.node[44].veinsmobility 	maxSpeed 	13.999982880761
scalar RSUExampleScenario.node[44].veinsmobility 	totalDistance 	1630.2739679204
scalar RSUExampleScenario.node[44].veinsmobility 	totalCO2Emission 	562.35383961422
scalar RSUExampleScenario.node[45].appl 	meanClusterNodes 	8
scalar RSUExampleScenario.node[45].appl 	meanClusterHeadUtility 	16.444653431506
scalar RSUExampleScenario.node[45].appl 	NumberofCH 	0.054054054054054
scalar RSUExampleScenario.node[45].appl 	NumberofON 	0.45945945945946
scalar RSUExampleScenario.node[45].appl 	NumberofFN 	0.48648648648649
scalar RSUExampleScenario.node[45].veinsmobility 	startTime 	108.5
scalar RSUExampleScenario.node[45].veinsmobility 	totalTime 	341.5
scalar RSUExampleScenario.node[45].veinsmobility 	stopTime 	450
scalar RSUExampleScenario.node[45].veinsmobility 	minSpeed 	0
scalar RSUExampleScenario.node[45].veinsmobility 	maxSpeed 	13.999931917044
scalar RSUExampleScenario.node[45].veinsmobility 	totalDistance 	1594.8430603134
scalar RSUExampleScenario.node[45].veinsmobility 	totalCO2Emission 	561.15992510605
scalar RSUExampleScenario.node[46].appl 	meanClusterNodes 	8
scalar RSUExampleScenario.node[46].appl 	meanClusterHeadUtility 	17.224289706376
scalar RSUExampleScenario.node[46].appl 	NumberofCH 	0.054054054054054
scalar RSUExampleScenario.node[46].appl 	NumberofON 	0.48648648648649
scalar RSUExampleScenario.node[46].appl 	NumberofFN 	0.45945945945946
scalar RSUExampleScenario.node[46].veinsmobility 	startTime 	110.9
scalar RSUExampleScenario.node[46].veinsmobility 	totalTime 	339.1
scalar RSUExampleScenario.node[46].veinsmobility 	stopTime 	450
scalar RSUExampleScenario.node[46].veinsmobility 	minSpeed 	0
scalar RSUExampleScenario.node[46].veinsmobility 	maxSpeed 	13.999946823693
scalar RSUExampleScenario.node[46].veinsmobility 	totalDistance 	1561.4230772156
scalar RSUExampleScenario.node[46].veinsmobility 	totalCO2Emission 	551.05335285696
scalar RSUExampleScenario.node[47].appl 	meanClusterNodes 	6
scalar RSUExampleScenario.node[47].appl 	meanClusterHeadUtility 	17.521895123025
scalar RSUExampleScenario.node[47].appl 	NumberofCH 	0.054054054054054
scalar RSUExampleScenario.node[47].appl 	NumberofON 	0.2972972972973
scalar RSUExampleScenario.node[47].appl 	NumberofFN 	0.64864864864865
scalar RSUExampleScenario.node[47].veinsmobility 	startTime 	113.3
scalar RSUExampleScenario.node[47].veinsmobility 	totalTime 	336.7
scalar RSUExampleScenario.node[47].veinsmobility 	stopTime 	450
scalar RSUExampleScenario.node[47].veinsmobility 	minSpeed 	0
scalar RSUExampleScenario.node[47].veinsmobility 	maxSpeed 	13.999988535305
scalar RSUExampleScenario.node[47].veinsmobility 	totalDistance 	1527.5488327992
scalar RSUExampleScenario.node[47].veinsmobility 	totalCO2Emission 	547.16430365342
scalar RSUExampleScenario.node[48].appl 	meanClusterNodes 	10
scalar RSUExampleScenario.node[48].appl 	meanClusterHeadUtility 	17.261452249476
scalar RSUExampleScenario.node[48].appl 	NumberofCH 	0.054054054054054
scalar RSUExampleScenario.node[48].appl 	NumberofON 	0.32432432432432
scalar RSUExampleScenario.node[48].appl 	NumberofFN 	0.62162162162162
scalar RSUExampleScenario.node[48].veinsmobility 	startTime 	115.7
scalar RSUExampleScenario.node[48].veinsmobility 	totalTime 	334.3
scalar RSUExampleScenario.node[48].veinsmobility 	stopTime 	450
scalar RSUExampleScenario.node[48].veinsmobility 	minSpeed 	0
scalar RSUExampleScenario.node[48].veinsmobility 	maxSpeed 	13.999958763353
scalar RSUExampleScenario.node[48].veinsmobility 	totalDistance 	1495.991029237
scalar RSUExampleScenario.node[48].veinsmobility 	totalCO2Emission 	543.42046113913
scalar RSUExampleScenario.node[49].appl 	meanClusterNodes 	8
scalar RSUExampleScenario.node[49].appl 	meanClusterHeadUtility 	16.885242052733
scalar RSUExampleScenario.node[49].appl 	NumberofCH 	0.054054054054054
scalar RSUExampleScenario.node[49].appl 	NumberofON 	0.35135135135135
scalar RSUExampleScenario.node[49].appl 	NumberofFN 	0.59459459459459
scalar RSUExampleScenario.node[49].veinsmobility 	startTime 	118.1
scalar RSUExampleScenario.node[49].veinsmobility 	totalTime 	331.9
scalar RSUExampleScenario.node[49].veinsmobility 	stopTime 	450
scalar RSUExampleScenario.node[49].veinsmobility 	minSpeed 	0
scalar RSUExampleScenario.node[49].veinsmobility 	maxSpeed 	13.999822448371
scalar RSUExampleScenario.node[49].veinsmobility 	totalDistance 	1461.1737977108
scalar RSUExampleScenario.node[49].veinsmobility 	totalCO2Emission 	534.09044761611
scalar RSUExampleScenario.node[5].appl 	meanClusterNodes 	2.5
scalar RSUExampleScenario.node[5].appl 	meanClusterHeadUtility 	17.781240006675
scalar RSUExampleScenario.node[5].appl 	NumberofCH 	0.054054054054054
scalar RSUExampleScenario.node[5].appl 	NumberofON 	0.10810810810811
scalar RSUExampleScenario.node[5].appl 	NumberofFN 	0.83783783783784
scalar RSUExampleScenario.node[5].veinsmobility 	startTime 	12.1
scalar RSUExampleScenario.node[5].veinsmobility 	totalTime 	437.9
scalar RSUExampleScenario.node[5].veinsmobility 	stopTime 	450
scalar RSUExampleScenario.node[5].veinsmobility 	minSpeed 	0
scalar RSUExampleScenario.node[5].veinsmobility 	maxSpeed 	13.999991675608
scalar RSUExampleScenario.node[5].veinsmobility 	totalDistance 	2913.9936117006
scalar RSUExampleScenario.node[5].veinsmobility 	totalCO2Emission 	780.98464184311
scalar RSUExampleScenario.node[50].appl 	meanClusterNodes 	6
scalar RSUExampleScenario.node[50].appl 	meanClusterHeadUtility 	17.017047348429
scalar RSUExampleScenario.node[50].appl 	NumberofCH 	0.054054054054054
scalar RSUExampleScenario.node[50].appl 	NumberofON 	0.62162162162162
scalar RSUExampleScenario.node[50].appl 	NumberofFN 	0.32432432432432
scalar RSUExampleScenario.node[50].veinsmobility 	startTime 	120.6
scalar RSUExampleScenario.node[50].veinsmobility 	totalTime 	329.4
scalar RSUExampleScenario.node[50].veinsmobility 	stopTime 	450
scalar RSUExampleScenario.node[50].veinsmobility 	minSpeed 	0
scalar RSUExampleScenario.node[50].veinsmobility 	maxSpeed 	13.999980006937
scalar RSUExampleScenario.node[50].veinsmobility 	totalDistance 	1426.42517801
scalar RSUExampleScenario.node[50].veinsmobility 	totalCO2Emission 	529.96423533932
scalar RSUExampleScenario.node[51].appl 	meanClusterNodes 	0
scalar RSUExampleScenario.node[51].appl 	meanClusterHeadUtility 	0
scalar RSUExampleScenario.node[51].appl 	NumberofCH 	0
scalar RSUExampleScenario.node[51].appl 	NumberofON 	0.48648648648649
scalar RSUExampleScenario.node[51].appl 	NumberofFN 	0.51351351351351
scalar RSUExampleScenario.node[51].veinsmobility 	startTime 	123
scalar RSUExampleScenario.node[51].veinsmobility 	totalTime 	327
scalar RSUExampleScenario.node[51].veinsmobility 	stopTime 	450
scalar RSUExampleScenario.node[51].veinsmobility 	minSpeed 	0
scalar RSUExampleScenario.node[51].veinsmobility 	maxSpeed 	13.99986667604
scalar RSUExampleScenario.node[51].veinsmobility 	totalDistance 	1392.886066362
scalar RSUExampleScenario.node[51].veinsmobility 	totalCO2Emission 	526.00338188797
scalar RSUExampleScenario.node[52].appl 	meanClusterNodes 	5.75
scalar RSUExampleScenario.node[52].appl 	meanClusterHeadUtility 	8.3609155605412
scalar RSUExampleScenario.node[52].appl 	NumberofCH 	0.10810810810811
scalar RSUExampleScenario.node[52].appl 	NumberofON 	0.45945945945946
scalar RSUExampleScenario.node[52].appl 	NumberofFN 	0.43243243243243
scalar RSUExampleScenario.node[52].veinsmobility 	startTime 	125.4
scalar RSUExampleScenario.node[52].veinsmobility 	totalTime 	324.6
scalar RSUExampleScenario.node[52].veinsmobility 	stopTime 	450
scalar RSUExampleScenario.node[52].veinsmobility 	minSpeed 	0
scalar RSUExampleScenario.node[52].veinsmobility 	maxSpeed 	13.999931244368
scalar RSUExampleScenario.node[52].veinsmobility 	totalDistance 	1359.4556137891
scalar RSUExampleScenario.node[52].veinsmobility 	totalCO2Emission 	518.13232642992
scalar RSUExampleScenario.node[53].appl 	meanClusterNodes 	3.5
scalar RSUExampleScenario.node[53].appl 	meanClusterHeadUtility 	16.671152616337
scalar RSUExampleScenario.node[53].appl 	NumberofCH 	0.054054054054054
scalar RSUExampleScenario.node[53].appl 	NumberofON 	0.62162162162162
scalar RSUExampleScenario.node[53].appl 	NumberofFN 	0.32432432432432
scalar RSUExampleScenario.node[53].veinsmobility 	startTime 	127.8
scalar RSUExampleScenario.node[53].veinsmobility 	totalTime 	322.2
scalar RSUExampleScenario.node[53].veinsmobility 	stopTime 	450
scalar RSUExampleScenario.node[53].veinsmobility 	minSpeed 	0
scalar RSUExampleScenario.node[53].veinsmobility 	maxSpeed 	13.999781665956
scalar RSUExampleScenario.node[53].veinsmobility 	totalDistance 	1325.6069989308
scalar RSUExampleScenario.node[53].veinsmobility 	totalCO2Emission 	511.81695026811
scalar RSUExampleScenario.node[54].appl 	meanClusterNodes 	0
scalar RSUExampleScenario.node[54].appl 	meanClusterHeadUtility 	0
scalar RSUExampleScenario.node[54].appl 	NumberofCH 	0
scalar RSUExampleScenario.node[54].appl 	NumberofON 	0.16216216216216
scalar RSUExampleScenario.node[54].appl 	NumberofFN 	0.83783783783784
scalar RSUExampleScenario.node[54].veinsmobility 	startTime 	130.2
scalar RSUExampleScenario.node[54].veinsmobility 	totalTime 	319.8
scalar RSUExampleScenario.node[54].veinsmobility 	stopTime 	450
scalar RSUExampleScenario.node[54].veinsmobility 	minSpeed 	0
scalar RSUExampleScenario.node[54].veinsmobility 	maxSpeed 	13.99946874876
scalar RSUExampleScenario.node[54].veinsmobility 	totalDistance 	1292.4934077667
scalar RSUExampleScenario.node[54].veinsmobility 	totalCO2Emission 	508.80131271853
scalar RSUExampleScenario.node[55].appl 	meanClusterNodes 	4
scalar RSUExampleScenario.node[55].appl 	meanClusterHeadUtility 	17.321479012885
scalar RSUExampleScenario.node[55].appl 	NumberofCH 	0.054054054054054
scalar RSUExampleScenario.node[55].appl 	NumberofON 	0.54054054054054
scalar RSUExampleScenario.node[55].appl 	NumberofFN 	0.40540540540541
scalar RSUExampleScenario.node[55].veinsmobility 	startTime 	132.6
scalar RSUExampleScenario.node[55].veinsmobility 	totalTime 	317.4
scalar RSUExampleScenario.node[55].veinsmobility 	stopTime 	450
scalar RSUExampleScenario.node[55].veinsmobility 	minSpeed 	0
scalar RSUExampleScenario.node[55].veinsmobility 	maxSpeed 	13.999991281307
scalar RSUExampleScenario.node[55].veinsmobility 	totalDistance 	1258.4527488934
scalar RSUExampleScenario.node[55].veinsmobility 	totalCO2Emission 	501.37832393766
scalar RSUExampleScenario.node[56].appl 	meanClusterNodes 	0
scalar RSUExampleScenario.node[56].appl 	meanClusterHeadUtility 	0
scalar RSUExampleScenario.node[56].appl 	NumberofCH 	0
scalar RSUExampleScenario.node[56].appl 	NumberofON 	0.62162162162162
scalar RSUExampleScenario.node[56].appl 	NumberofFN 	0.37837837837838
scalar RSUExampleScenario.node[56].veinsmobility 	startTime 	135
scalar RSUExampleScenario.node[56].veinsmobility 	totalTime 	315
scalar RSUExampleScenario.node[56].veinsmobility 	stopTime 	450
scalar RSUExampleScenario.node[56].veinsmobility 	minSpeed 	0
scalar RSUExampleScenario.node[56].veinsmobility 	maxSpeed 	13.999854957517
scalar RSUExampleScenario.node[56].veinsmobility 	totalDistance 	1224.9382007869
scalar RSUExampleScenario.node[56].veinsmobility 	totalCO2Emission 	495.64827346354
scalar RSUExampleScenario.node[57].appl 	meanClusterNodes 	12
scalar RSUExampleScenario.node[57].appl 	meanClusterHeadUtility 	17.096736169774
scalar RSUExampleScenario.node[57].appl 	NumberofCH 	0.054054054054054
scalar RSUExampleScenario.node[57].appl 	NumberofON 	0.27027027027027
scalar RSUExampleScenario.node[57].appl 	NumberofFN 	0.67567567567568
scalar RSUExampleScenario.node[57].veinsmobility 	startTime 	137.4
scalar RSUExampleScenario.node[57].veinsmobility 	totalTime 	312.6
scalar RSUExampleScenario.node[57].veinsmobility 	stopTime 	450
scalar RSUExampleScenario.node[57].veinsmobility 	minSpeed 	0
scalar RSUExampleScenario.node[57].veinsmobility 	maxSpeed 	13.999763280547
scalar RSUExampleScenario.node[57].veinsmobility 	totalDistance 	1192.669176469
scalar RSUExampleScenario.node[57].veinsmobility 	totalCO2Emission 	490.59204659054
scalar RSUExampleScenario.node[58].appl 	meanClusterNodes 	13.5
scalar RSUExampleScenario.node[58].appl 	meanClusterHeadUtility 	17.626951262046
scalar RSUExampleScenario.node[58].appl 	NumberofCH 	0.054054054054054
scalar RSUExampleScenario.node[58].appl 	NumberofON 	0.21621621621622
scalar RSUExampleScenario.node[58].appl 	NumberofFN 	0.72972972972973
scalar RSUExampleScenario.node[58].veinsmobility 	startTime 	139.8
scalar RSUExampleScenario.node[58].veinsmobility 	totalTime 	310.2
scalar RSUExampleScenario.node[58].veinsmobility 	stopTime 	450
scalar RSUExampleScenario.node[58].veinsmobility 	minSpeed 	0
scalar RSUExampleScenario.node[58].veinsmobility 	maxSpeed 	13.999769841041
scalar RSUExampleScenario.node[58].veinsmobility 	totalDistance 	1159.304658363
scalar RSUExampleScenario.node[58].veinsmobility 	totalCO2Emission 	485.20524443828
scalar RSUExampleScenario.node[59].appl 	meanClusterNodes 	2.5
scalar RSUExampleScenario.node[59].appl 	meanClusterHeadUtility 	15.578861829361
scalar RSUExampleScenario.node[59].appl 	NumberofCH 	0.054054054054054
scalar RSUExampleScenario.node[59].appl 	NumberofON 	0.54054054054054
scalar RSUExampleScenario.node[59].appl 	NumberofFN 	0.40540540540541
scalar RSUExampleScenario.node[59].veinsmobility 	startTime 	142.2
scalar RSUExampleScenario.node[59].veinsmobility 	totalTime 	307.8
scalar RSUExampleScenario.node[59].veinsmobility 	stopTime 	450
scalar RSUExampleScenario.node[59].veinsmobility 	minSpeed 	0
scalar RSUExampleScenario.node[59].veinsmobility 	maxSpeed 	13.999992247159
scalar RSUExampleScenario.node[59].veinsmobility 	totalDistance 	1125.6495470898
scalar RSUExampleScenario.node[59].veinsmobility 	totalCO2Emission 	478.71070447461
scalar RSUExampleScenario.node[6].appl 	meanClusterNodes 	0
scalar RSUExampleScenario.node[6].appl 	meanClusterHeadUtility 	0
scalar RSUExampleScenario.node[6].appl 	NumberofCH 	0
scalar RSUExampleScenario.node[6].appl 	NumberofON 	0.2972972972973
scalar RSUExampleScenario.node[6].appl 	NumberofFN 	0.7027027027027
scalar RSUExampleScenario.node[6].veinsmobility 	startTime 	14.5
scalar RSUExampleScenario.node[6].veinsmobility 	totalTime 	435.5
scalar RSUExampleScenario.node[6].veinsmobility 	stopTime 	450
scalar RSUExampleScenario.node[6].veinsmobility 	minSpeed 	0
scalar RSUExampleScenario.node[6].veinsmobility 	maxSpeed 	13.999910224858
scalar RSUExampleScenario.node[6].veinsmobility 	totalDistance 	2905.5050777832
scalar RSUExampleScenario.node[6].veinsmobility 	totalCO2Emission 	777.12175724913
scalar RSUExampleScenario.node[60].appl 	meanClusterNodes 	2
scalar RSUExampleScenario.node[60].appl 	meanClusterHeadUtility 	15.516113297184
scalar RSUExampleScenario.node[60].appl 	NumberofCH 	0.054054054054054
scalar RSUExampleScenario.node[60].appl 	NumberofON 	0.51351351351351
scalar RSUExampleScenario.node[60].appl 	NumberofFN 	0.43243243243243
scalar RSUExampleScenario.node[60].veinsmobility 	startTime 	144.7
scalar RSUExampleScenario.node[60].veinsmobility 	totalTime 	305.3
scalar RSUExampleScenario.node[60].veinsmobility 	stopTime 	450
scalar RSUExampleScenario.node[60].veinsmobility 	minSpeed 	0
scalar RSUExampleScenario.node[60].veinsmobility 	maxSpeed 	13.999943380195
scalar RSUExampleScenario.node[60].veinsmobility 	totalDistance 	1091.7407223656
scalar RSUExampleScenario.node[60].veinsmobility 	totalCO2Emission 	473.86931414539
scalar RSUExampleScenario.node[61].appl 	meanClusterNodes 	5.5
scalar RSUExampleScenario.node[61].appl 	meanClusterHeadUtility 	16.140196761869
scalar RSUExampleScenario.node[61].appl 	NumberofCH 	0.054054054054054
scalar RSUExampleScenario.node[61].appl 	NumberofON 	0.56756756756757
scalar RSUExampleScenario.node[61].appl 	NumberofFN 	0.37837837837838
scalar RSUExampleScenario.node[61].veinsmobility 	startTime 	147.1
scalar RSUExampleScenario.node[61].veinsmobility 	totalTime 	302.9
scalar RSUExampleScenario.node[61].veinsmobility 	stopTime 	450
scalar RSUExampleScenario.node[61].veinsmobility 	minSpeed 	0
scalar RSUExampleScenario.node[61].veinsmobility 	maxSpeed 	13.99977641101
scalar RSUExampleScenario.node[61].veinsmobility 	totalDistance 	1059.2031625834
scalar RSUExampleScenario.node[61].veinsmobility 	totalCO2Emission 	469.13544469754
scalar RSUExampleScenario.node[62].appl 	meanClusterNodes 	0
scalar RSUExampleScenario.node[62].appl 	meanClusterHeadUtility 	0
scalar RSUExampleScenario.node[62].appl 	NumberofCH 	0
scalar RSUExampleScenario.node[62].appl 	NumberofON 	0.32432432432432
scalar RSUExampleScenario.node[62].appl 	NumberofFN 	0.67567567567568
scalar RSUExampleScenario.node[62].veinsmobility 	startTime 	149.5
scalar RSUExampleScenario.node[62].veinsmobility 	totalTime 	300.5
scalar RSUExampleScenario.node[62].veinsmobility 	stopTime 	450
scalar RSUExampleScenario.node[62].veinsmobility 	minSpeed 	0
scalar RSUExampleScenario.node[62].veinsmobility 	maxSpeed 	13.999321205053
scalar RSUExampleScenario.node[62].veinsmobility 	totalDistance 	1026.4584593201
scalar RSUExampleScenario.node[62].veinsmobility 	totalCO2Emission 	462.84070929756
scalar RSUExampleScenario.node[63].appl 	meanClusterNodes 	14.5
scalar RSUExampleScenario.node[63].appl 	meanClusterHeadUtility 	17.190914978387
scalar RSUExampleScenario.node[63].appl 	NumberofCH 	0.054054054054054
scalar RSUExampleScenario.node[63].appl 	NumberofON 	0.37837837837838
scalar RSUExampleScenario.node[63].appl 	NumberofFN 	0.56756756756757
scalar RSUExampleScenario.node[63].veinsmobility 	startTime 	151.9
scalar RSUExampleScenario.node[63].veinsmobility 	totalTime 	298.1
scalar RSUExampleScenario.node[63].veinsmobility 	stopTime 	450
scalar RSUExampleScenario.node[63].veinsmobility 	minSpeed 	0
scalar RSUExampleScenario.node[63].veinsmobility 	maxSpeed 	13.999823088932
scalar RSUExampleScenario.node[63].veinsmobility 	totalDistance 	984.99867098263
scalar RSUExampleScenario.node[63].veinsmobility 	totalCO2Emission 	449.37011594105
scalar RSUExampleScenario.node[64].appl 	meanClusterNodes 	0
scalar RSUExampleScenario.node[64].appl 	meanClusterHeadUtility 	0
scalar RSUExampleScenario.node[64].appl 	NumberofCH 	0
scalar RSUExampleScenario.node[64].appl 	NumberofON 	0.35135135135135
scalar RSUExampleScenario.node[64].appl 	NumberofFN 	0.64864864864865
scalar RSUExampleScenario.node[64].veinsmobility 	startTime 	154.3
scalar RSUExampleScenario.node[64].veinsmobility 	totalTime 	295.7
scalar RSUExampleScenario.node[64].veinsmobility 	stopTime 	450
scalar RSUExampleScenario.node[64].veinsmobility 	minSpeed 	0
scalar RSUExampleScenario.node[64].veinsmobility 	maxSpeed 	13.999988134587
scalar RSUExampleScenario.node[64].veinsmobility 	totalDistance 	954.81201453527
scalar RSUExampleScenario.node[64].veinsmobility 	totalCO2Emission 	435.95638789067
scalar RSUExampleScenario.node[65].appl 	meanClusterNodes 	12
scalar RSUExampleScenario.node[65].appl 	meanClusterHeadUtility 	17.786714617356
scalar RSUExampleScenario.node[65].appl 	NumberofCH 	0.054054054054054
scalar RSUExampleScenario.node[65].appl 	NumberofON 	0.2972972972973
scalar RSUExampleScenario.node[65].appl 	NumberofFN 	0.64864864864865
scalar RSUExampleScenario.node[65].veinsmobility 	startTime 	156.7
scalar RSUExampleScenario.node[65].veinsmobility 	totalTime 	293.3
scalar RSUExampleScenario.node[65].veinsmobility 	stopTime 	450
scalar RSUExampleScenario.node[65].veinsmobility 	minSpeed 	0
scalar RSUExampleScenario.node[65].veinsmobility 	maxSpeed 	13.999854332211
scalar RSUExampleScenario.node[65].veinsmobility 	totalDistance 	940.61384045176
scalar RSUExampleScenario.node[65].veinsmobility 	totalCO2Emission 	427.80973180009
scalar RSUExampleScenario.node[66].appl 	meanClusterNodes 	7.5
scalar RSUExampleScenario.node[66].appl 	meanClusterHeadUtility 	17.436579826425
scalar RSUExampleScenario.node[66].appl 	NumberofCH 	0.054054054054054
scalar RSUExampleScenario.node[66].appl 	NumberofON 	0.2972972972973
scalar RSUExampleScenario.node[66].appl 	NumberofFN 	0.64864864864865
scalar RSUExampleScenario.node[66].veinsmobility 	startTime 	159.1
scalar RSUExampleScenario.node[66].veinsmobility 	totalTime 	290.9
scalar RSUExampleScenario.node[66].veinsmobility 	stopTime 	450
scalar RSUExampleScenario.node[66].veinsmobility 	minSpeed 	0
scalar RSUExampleScenario.node[66].veinsmobility 	maxSpeed 	13.999456426604
scalar RSUExampleScenario.node[66].veinsmobility 	totalDistance 	928.15690940187
scalar RSUExampleScenario.node[66].veinsmobility 	totalCO2Emission 	422.86384149095
scalar RSUExampleScenario.node[67].appl 	meanClusterNodes 	6.6666666666667
scalar RSUExampleScenario.node[67].appl 	meanClusterHeadUtility 	11.166684994791
scalar RSUExampleScenario.node[67].appl 	NumberofCH 	0.081081081081081
scalar RSUExampleScenario.node[67].appl 	NumberofON 	0.24324324324324
scalar RSUExampleScenario.node[67].appl 	NumberofFN 	0.67567567567568
scalar RSUExampleScenario.node[67].veinsmobility 	startTime 	161.5
scalar RSUExampleScenario.node[67].veinsmobility 	totalTime 	288.5
scalar RSUExampleScenario.node[67].veinsmobility 	stopTime 	450
scalar RSUExampleScenario.node[67].veinsmobility 	minSpeed 	0
scalar RSUExampleScenario.node[67].veinsmobility 	maxSpeed 	13.999630906698
scalar RSUExampleScenario.node[67].veinsmobility 	totalDistance 	913.22330040266
scalar RSUExampleScenario.node[67].veinsmobility 	totalCO2Emission 	421.64477239063
scalar RSUExampleScenario.node[68].appl 	meanClusterNodes 	0
scalar RSUExampleScenario.node[68].appl 	meanClusterHeadUtility 	0
scalar RSUExampleScenario.node[68].appl 	NumberofCH 	0
scalar RSUExampleScenario.node[68].appl 	NumberofON 	0.51351351351351
scalar RSUExampleScenario.node[68].appl 	NumberofFN 	0.48648648648649
scalar RSUExampleScenario.node[68].veinsmobility 	startTime 	163.9
scalar RSUExampleScenario.node[68].veinsmobility 	totalTime 	286.1
scalar RSUExampleScenario.node[68].veinsmobility 	stopTime 	450
scalar RSUExampleScenario.node[68].veinsmobility 	minSpeed 	0
scalar RSUExampleScenario.node[68].veinsmobility 	maxSpeed 	13.999843265449
scalar RSUExampleScenario.node[68].veinsmobility 	totalDistance 	892.94537683623
scalar RSUExampleScenario.node[68].veinsmobility 	totalCO2Emission 	419.36902152512
scalar RSUExampleScenario.node[69].appl 	meanClusterNodes 	3.5
scalar RSUExampleScenario.node[69].appl 	meanClusterHeadUtility 	18.038137147854
scalar RSUExampleScenario.node[69].appl 	NumberofCH 	0.054054054054054
scalar RSUExampleScenario.node[69].appl 	NumberofON 	0.54054054054054
scalar RSUExampleScenario.node[69].appl 	NumberofFN 	0.40540540540541
scalar RSUExampleScenario.node[69].veinsmobility 	startTime 	166.3
scalar RSUExampleScenario.node[69].veinsmobility 	totalTime 	283.7
scalar RSUExampleScenario.node[69].veinsmobility 	stopTime 	450
scalar RSUExampleScenario.node[69].veinsmobility 	minSpeed 	0
scalar RSUExampleScenario.node[69].veinsmobility 	maxSpeed 	13.999884969161
scalar RSUExampleScenario.node[69].veinsmobility 	totalDistance 	860.02056816759
scalar RSUExampleScenario.node[69].veinsmobility 	totalCO2Emission 	412.20084034386
scalar RSUExampleScenario.node[7].appl 	meanClusterNodes 	0
scalar RSUExampleScenario.node[7].appl 	meanClusterHeadUtility 	0
scalar RSUExampleScenario.node[7].appl 	NumberofCH 	0
scalar RSUExampleScenario.node[7].appl 	NumberofON 	0.32432432432432
scalar RSUExampleScenario.node[7].appl 	NumberofFN 	0.67567567567568
scalar RSUExampleScenario.node[7].veinsmobility 	startTime 	16.9
scalar RSUExampleScenario.node[7].veinsmobility 	totalTime 	433.1
scalar RSUExampleScenario.node[7].veinsmobility 	stopTime 	450
scalar RSUExampleScenario.node[7].veinsmobility 	minSpeed 	0
scalar RSUExampleScenario.node[7].veinsmobility 	maxSpeed 	13.999978695426
scalar RSUExampleScenario.node[7].veinsmobility 	totalDistance 	2885.3743599184
scalar RSUExampleScenario.node[7].veinsmobility 	totalCO2Emission 	778.1341766302
scalar RSUExampleScenario.node[70].appl 	meanClusterNodes 	9
scalar RSUExampleScenario.node[70].appl 	meanClusterHeadUtility 	16.649164006558
scalar RSUExampleScenario.node[70].appl 	NumberofCH 	0.054054054054054
scalar RSUExampleScenario.node[70].appl 	NumberofON 	0.37837837837838
scalar RSUExampleScenario.node[70].appl 	NumberofFN 	0.56756756756757
scalar RSUExampleScenario.node[70].veinsmobility 	startTime 	168.8
scalar RSUExampleScenario.node[70].veinsmobility 	totalTime 	281.2
scalar RSUExampleScenario.node[70].veinsmobility 	stopTime 	450
scalar RSUExampleScenario.node[70].veinsmobility 	minSpeed 	0
scalar RSUExampleScenario.node[70].veinsmobility 	maxSpeed 	13.999548072761
scalar RSUExampleScenario.node[70].veinsmobility 	totalDistance 	826.44665196327
scalar RSUExampleScenario.node[70].veinsmobility 	totalCO2Emission 	406.48316131413
scalar RSUExampleScenario.node[71].appl 	meanClusterNodes 	1
scalar RSUExampleScenario.node[71].appl 	meanClusterHeadUtility 	16.184950191669
scalar RSUExampleScenario.node[71].appl 	NumberofCH 	0.054054054054054
scalar RSUExampleScenario.node[71].appl 	NumberofON 	0.24324324324324
scalar RSUExampleScenario.node[71].appl 	NumberofFN 	0.7027027027027
scalar RSUExampleScenario.node[71].veinsmobility 	startTime 	171.2
scalar RSUExampleScenario.node[71].veinsmobility 	totalTime 	278.8
scalar RSUExampleScenario.node[71].veinsmobility 	stopTime 	450
scalar RSUExampleScenario.node[71].veinsmobility 	minSpeed 	0
scalar RSUExampleScenario.node[71].veinsmobility 	maxSpeed 	13.999712425431
scalar RSUExampleScenario.node[71].veinsmobility 	totalDistance 	792.7862687072
scalar RSUExampleScenario.node[71].veinsmobility 	totalCO2Emission 	401.8000025644
scalar RSUExampleScenario.node[72].appl 	meanClusterNodes 	10
scalar RSUExampleScenario.node[72].appl 	meanClusterHeadUtility 	17.096539097407
scalar RSUExampleScenario.node[72].appl 	NumberofCH 	0.054054054054054
scalar RSUExampleScenario.node[72].appl 	NumberofON 	0.35135135135135
scalar RSUExampleScenario.node[72].appl 	NumberofFN 	0.59459459459459
scalar RSUExampleScenario.node[72].veinsmobility 	startTime 	173.6
scalar RSUExampleScenario.node[72].veinsmobility 	totalTime 	276.4
scalar RSUExampleScenario.node[72].veinsmobility 	stopTime 	450
scalar RSUExampleScenario.node[72].veinsmobility 	minSpeed 	0
scalar RSUExampleScenario.node[72].veinsmobility 	maxSpeed 	13.999004109513
scalar RSUExampleScenario.node[72].veinsmobility 	totalDistance 	760.26140251275
scalar RSUExampleScenario.node[72].veinsmobility 	totalCO2Emission 	396.84820246737
scalar RSUExampleScenario.node[73].appl 	meanClusterNodes 	8.5
scalar RSUExampleScenario.node[73].appl 	meanClusterHeadUtility 	17.048816159717
scalar RSUExampleScenario.node[73].appl 	NumberofCH 	0.054054054054054
scalar RSUExampleScenario.node[73].appl 	NumberofON 	0.51351351351351
scalar RSUExampleScenario.node[73].appl 	NumberofFN 	0.43243243243243
scalar RSUExampleScenario.node[73].veinsmobility 	startTime 	176
scalar RSUExampleScenario.node[73].veinsmobility 	totalTime 	274
scalar RSUExampleScenario.node[73].veinsmobility 	stopTime 	450
scalar RSUExampleScenario.node[73].veinsmobility 	minSpeed 	0
scalar RSUExampleScenario.node[73].veinsmobility 	maxSpeed 	13.998891946082
scalar RSUExampleScenario.node[73].veinsmobility 	totalDistance 	724.99316581196
scalar RSUExampleScenario.node[73].veinsmobility 	totalCO2Emission 	391.06338511436
scalar RSUExampleScenario.node[74].appl 	meanClusterNodes 	7
scalar RSUExampleScenario.node[74].appl 	meanClusterHeadUtility 	16.408842309322
scalar RSUExampleScenario.node[74].appl 	NumberofCH 	0.054054054054054
scalar RSUExampleScenario.node[74].appl 	NumberofON 	0.2972972972973
scalar RSUExampleScenario.node[74].appl 	NumberofFN 	0.64864864864865
scalar RSUExampleScenario.node[74].veinsmobility 	startTime 	178.4
scalar RSUExampleScenario.node[74].veinsmobility 	totalTime 	271.6
scalar RSUExampleScenario.node[74].veinsmobility 	stopTime 	450
scalar RSUExampleScenario.node[74].veinsmobility 	minSpeed 	0
scalar RSUExampleScenario.node[74].veinsmobility 	maxSpeed 	13.999848873653
scalar RSUExampleScenario.node[74].veinsmobility 	totalDistance 	690.68928272198
scalar RSUExampleScenario.node[74].veinsmobility 	totalCO2Emission 	384.90052940013
scalar RSUExampleScenario.node[75].appl 	meanClusterNodes 	4.5
scalar RSUExampleScenario.node[75].appl 	meanClusterHeadUtility 	17.245692189916
scalar RSUExampleScenario.node[75].appl 	NumberofCH 	0.054054054054054
scalar RSUExampleScenario.node[75].appl 	NumberofON 	0.51351351351351
scalar RSUExampleScenario.node[75].appl 	NumberofFN 	0.43243243243243
scalar RSUExampleScenario.node[75].veinsmobility 	startTime 	180.8
scalar RSUExampleScenario.node[75].veinsmobility 	totalTime 	269.2
scalar RSUExampleScenario.node[75].veinsmobility 	stopTime 	450
scalar RSUExampleScenario.node[75].veinsmobility 	minSpeed 	0
scalar RSUExampleScenario.node[75].veinsmobility 	maxSpeed 	13.999916350916
scalar RSUExampleScenario.node[75].veinsmobility 	totalDistance 	657.48524910988
scalar RSUExampleScenario.node[75].veinsmobility 	totalCO2Emission 	379.9773784933
scalar RSUExampleScenario.node[76].appl 	meanClusterNodes 	4
scalar RSUExampleScenario.node[76].appl 	meanClusterHeadUtility 	16.388712765734
scalar RSUExampleScenario.node[76].appl 	NumberofCH 	0.054054054054054
scalar RSUExampleScenario.node[76].appl 	NumberofON 	0.27027027027027
scalar RSUExampleScenario.node[76].appl 	NumberofFN 	0.67567567567568
scalar RSUExampleScenario.node[76].veinsmobility 	startTime 	183.2
scalar RSUExampleScenario.node[76].veinsmobility 	totalTime 	266.8
scalar RSUExampleScenario.node[76].veinsmobility 	stopTime 	450
scalar RSUExampleScenario.node[76].veinsmobility 	minSpeed 	0
scalar RSUExampleScenario.node[76].veinsmobility 	maxSpeed 	13.998995790146
scalar RSUExampleScenario.node[76].veinsmobility 	totalDistance 	622.6813827559
scalar RSUExampleScenario.node[76].veinsmobility 	totalCO2Emission 	371.48005469166
scalar RSUExampleScenario.node[77].appl 	meanClusterNodes 	0
scalar RSUExampleScenario.node[77].appl 	meanClusterHeadUtility 	0
scalar RSUExampleScenario.node[77].appl 	NumberofCH 	0
scalar RSUExampleScenario.node[77].appl 	NumberofON 	0.27027027027027
scalar RSUExampleScenario.node[77].appl 	NumberofFN 	0.72972972972973
scalar RSUExampleScenario.node[77].veinsmobility 	startTime 	185.6
scalar RSUExampleScenario.node[77].veinsmobility 	totalTime 	264.4
scalar RSUExampleScenario.node[77].veinsmobility 	stopTime 	450
scalar RSUExampleScenario.node[77].veinsmobility 	minSpeed 	0
scalar RSUExampleScenario.node[77].veinsmobility 	maxSpeed 	13.999487485762
scalar RSUExampleScenario.node[77].veinsmobility 	totalDistance 	591.66034681662
scalar RSUExampleScenario.node[77].veinsmobility 	totalCO2Emission 	368.4909284641
scalar RSUExampleScenario.node[78].appl 	meanClusterNodes 	0
scalar RSUExampleScenario.node[78].appl 	meanClusterHeadUtility 	0
scalar RSUExampleScenario.node[78].appl 	NumberofCH 	0
scalar RSUExampleScenario.node[78].appl 	NumberofON 	0.43243243243243
scalar RSUExampleScenario.node[78].appl 	NumberofFN 	0.56756756756757
scalar RSUExampleScenario.node[78].veinsmobility 	startTime 	188
scalar RSUExampleScenario.node[78].veinsmobility 	totalTime 	262
scalar RSUExampleScenario.node[78].veinsmobility 	stopTime 	450
scalar RSUExampleScenario.node[78].veinsmobility 	minSpeed 	0
scalar RSUExampleScenario.node[78].veinsmobility 	maxSpeed 	13.99883377698
scalar RSUExampleScenario.node[78].veinsmobility 	totalDistance 	557.62890980022
scalar RSUExampleScenario.node[78].veinsmobility 	totalCO2Emission 	362.22942261429
scalar RSUExampleScenario.node[79].appl 	meanClusterNodes 	5
scalar RSUExampleScenario.node[79].appl 	meanClusterHeadUtility 	17.984896826077
scalar RSUExampleScenario.node[79].appl 	NumberofCH 	0.054054054054054
scalar RSUExampleScenario.node[79].appl 	NumberofON 	0.43243243243243
scalar RSUExampleScenario.node[79].appl 	NumberofFN 	0.51351351351351
scalar RSUExampleScenario.node[79].veinsmobility 	startTime 	190.4
scalar RSUExampleScenario.node[79].veinsmobility 	totalTime 	259.6
scalar RSUExampleScenario.node[79].veinsmobility 	stopTime 	450
scalar RSUExampleScenario.node[79].veinsmobility 	minSpeed 	0
scalar RSUExampleScenario.node[79].veinsmobility 	maxSpeed 	13.998895929682
scalar RSUExampleScenario.node[79].veinsmobility 	totalDistance 	523.89883378082
scalar RSUExampleScenario.node[79].veinsmobility 	totalCO2Emission 	355.01905916994
scalar RSUExampleScenario.node[8].appl 	meanClusterNodes 	7
scalar RSUExampleScenario.node[8].appl 	meanClusterHeadUtility 	17.887631624537
scalar RSUExampleScenario.node[8].appl 	NumberofCH 	0.054054054054054
scalar RSUExampleScenario.node[8].appl 	NumberofON 	0.21621621621622
scalar RSUExampleScenario.node[8].appl 	NumberofFN 	0.72972972972973
scalar RSUExampleScenario.node[8].veinsmobility 	startTime 	19.3
scalar RSUExampleScenario.node[8].veinsmobility 	totalTime 	430.7
scalar RSUExampleScenario.node[8].veinsmobility 	stopTime 	450
scalar RSUExampleScenario.node[8].veinsmobility 	minSpeed 	0
scalar RSUExampleScenario.node[8].veinsmobility 	maxSpeed 	13.999993594084
scalar RSUExampleScenario.node[8].veinsmobility 	totalDistance 	2864.7422961795
scalar RSUExampleScenario.node[8].veinsmobility 	totalCO2Emission 	768.92339473754
scalar RSUExampleScenario.node[80].appl 	meanClusterNodes 	3
scalar RSUExampleScenario.node[80].appl 	meanClusterHeadUtility 	17.467736438211
scalar RSUExampleScenario.node[80].appl 	NumberofCH 	0.054054054054054
scalar RSUExampleScenario.node[80].appl 	NumberofON 	0.43243243243243
scalar RSUExampleScenario.node[80].appl 	NumberofFN 	0.51351351351351
scalar RSUExampleScenario.node[80].veinsmobility 	startTime 	192.9
scalar RSUExampleScenario.node[80].veinsmobility 	totalTime 	257.1
scalar RSUExampleScenario.node[80].veinsmobility 	stopTime 	450
scalar RSUExampleScenario.node[80].veinsmobility 	minSpeed 	0
scalar RSUExampleScenario.node[80].veinsmobility 	maxSpeed 	13.999725859694
scalar RSUExampleScenario.node[80].veinsmobility 	totalDistance 	490.60164994908
scalar RSUExampleScenario.node[80].veinsmobility 	totalCO2Emission 	350.0540265338
scalar RSUExampleScenario.node[81].appl 	meanClusterNodes 	0
scalar RSUExampleScenario.node[81].appl 	meanClusterHeadUtility 	0
scalar RSUExampleScenario.node[81].appl 	NumberofCH 	0
scalar RSUExampleScenario.node[81].appl 	NumberofON 	0.18918918918919
scalar RSUExampleScenario.node[81].appl 	NumberofFN 	0.81081081081081
scalar RSUExampleScenario.node[81].veinsmobility 	startTime 	195.3
scalar RSUExampleScenario.node[81].veinsmobility 	totalTime 	254.7
scalar RSUExampleScenario.node[81].veinsmobility 	stopTime 	450
scalar RSUExampleScenario.node[81].veinsmobility 	minSpeed 	0
scalar RSUExampleScenario.node[81].veinsmobility 	maxSpeed 	13.995823935252
scalar RSUExampleScenario.node[81].veinsmobility 	totalDistance 	454.53399732499
scalar RSUExampleScenario.node[81].veinsmobility 	totalCO2Emission 	344.15337505197
scalar RSUExampleScenario.node[82].appl 	meanClusterNodes 	0
scalar RSUExampleScenario.node[82].appl 	meanClusterHeadUtility 	0
scalar RSUExampleScenario.node[82].appl 	NumberofCH 	0
scalar RSUExampleScenario.node[82].appl 	NumberofON 	0.18918918918919
scalar RSUExampleScenario.node[82].appl 	NumberofFN 	0.81081081081081
scalar RSUExampleScenario.node[82].veinsmobility 	startTime 	197.7
scalar RSUExampleScenario.node[82].veinsmobility 	totalTime 	252.3
scalar RSUExampleScenario.node[82].veinsmobility 	stopTime 	450
scalar RSUExampleScenario.node[82].veinsmobility 	minSpeed 	0
scalar RSUExampleScenario.node[82].veinsmobility 	maxSpeed 	13.998634358852
scalar RSUExampleScenario.node[82].veinsmobility 	totalDistance 	422.28551640961
scalar RSUExampleScenario.node[82].veinsmobility 	totalCO2Emission 	338.26612099221
scalar RSUExampleScenario.node[83].appl 	meanClusterNodes 	0
scalar RSUExampleScenario.node[83].appl 	meanClusterHeadUtility 	0
scalar RSUExampleScenario.node[83].appl 	NumberofCH 	0
scalar RSUExampleScenario.node[83].appl 	NumberofON 	0.37837837837838
scalar RSUExampleScenario.node[83].appl 	NumberofFN 	0.62162162162162
scalar RSUExampleScenario.node[83].veinsmobility 	startTime 	200.1
scalar RSUExampleScenario.node[83].veinsmobility 	totalTime 	249.9
scalar RSUExampleScenario.node[83].veinsmobility 	stopTime 	450
scalar RSUExampleScenario.node[83].veinsmobility 	minSpeed 	0
scalar RSUExampleScenario.node[83].veinsmobility 	maxSpeed 	13.999913141935
scalar RSUExampleScenario.node[83].veinsmobility 	totalDistance 	387.48051452253
scalar RSUExampleScenario.node[83].veinsmobility 	totalCO2Emission 	332.97979072562
scalar RSUExampleScenario.node[84].appl 	meanClusterNodes 	5.5
scalar RSUExampleScenario.node[84].appl 	meanClusterHeadUtility 	19.256944253113
scalar RSUExampleScenario.node[84].appl 	NumberofCH 	0.054054054054054
scalar RSUExampleScenario.node[84].appl 	NumberofON 	0.45945945945946
scalar RSUExampleScenario.node[84].appl 	NumberofFN 	0.48648648648649
scalar RSUExampleScenario.node[84].veinsmobility 	startTime 	202.5
scalar RSUExampleScenario.node[84].veinsmobility 	totalTime 	247.5
scalar RSUExampleScenario.node[84].veinsmobility 	stopTime 	450
scalar RSUExampleScenario.node[84].veinsmobility 	minSpeed 	0
scalar RSUExampleScenario.node[84].veinsmobility 	maxSpeed 	13.997250087911
scalar RSUExampleScenario.node[84].veinsmobility 	totalDistance 	354.50409792796
scalar RSUExampleScenario.node[84].veinsmobility 	totalCO2Emission 	327.5291474321
scalar RSUExampleScenario.node[85].appl 	meanClusterNodes 	4
scalar RSUExampleScenario.node[85].appl 	meanClusterHeadUtility 	17.564363188303
scalar RSUExampleScenario.node[85].appl 	NumberofCH 	0.054054054054054
scalar RSUExampleScenario.node[85].appl 	NumberofON 	0.45945945945946
scalar RSUExampleScenario.node[85].appl 	NumberofFN 	0.48648648648649
scalar RSUExampleScenario.node[85].veinsmobility 	startTime 	204.9
scalar RSUExampleScenario.node[85].veinsmobility 	totalTime 	245.1
scalar RSUExampleScenario.node[85].veinsmobility 	stopTime 	450
scalar RSUExampleScenario.node[85].veinsmobility 	minSpeed 	0
scalar RSUExampleScenario.node[85].veinsmobility 	maxSpeed 	13.996899618953
scalar RSUExampleScenario.node[85].veinsmobility 	totalDistance 	322.57771751079
scalar RSUExampleScenario.node[85].veinsmobility 	totalCO2Emission 	323.21272869297
scalar RSUExampleScenario.node[86].appl 	meanClusterNodes 	7.5
scalar RSUExampleScenario.node[86].appl 	meanClusterHeadUtility 	18.516097759419
scalar RSUExampleScenario.node[86].appl 	NumberofCH 	0.054054054054054
scalar RSUExampleScenario.node[86].appl 	NumberofON 	0.35135135135135
scalar RSUExampleScenario.node[86].appl 	NumberofFN 	0.59459459459459
scalar RSUExampleScenario.node[86].veinsmobility 	startTime 	207.3
scalar RSUExampleScenario.node[86].veinsmobility 	totalTime 	242.7
scalar RSUExampleScenario.node[86].veinsmobility 	stopTime 	450
scalar RSUExampleScenario.node[86].veinsmobility 	minSpeed 	0
scalar RSUExampleScenario.node[86].veinsmobility 	maxSpeed 	13.744523080107
scalar RSUExampleScenario.node[86].veinsmobility 	totalDistance 	288.28040232882
scalar RSUExampleScenario.node[86].veinsmobility 	totalCO2Emission 	316.05693886639
scalar RSUExampleScenario.node[87].appl 	meanClusterNodes 	6
scalar RSUExampleScenario.node[87].appl 	meanClusterHeadUtility 	20.22978518859
scalar RSUExampleScenario.node[87].appl 	NumberofCH 	0.054054054054054
scalar RSUExampleScenario.node[87].appl 	NumberofON 	0.27027027027027
scalar RSUExampleScenario.node[87].appl 	NumberofFN 	0.67567567567568
scalar RSUExampleScenario.node[87].veinsmobility 	startTime 	209.7
scalar RSUExampleScenario.node[87].veinsmobility 	totalTime 	240.3
scalar RSUExampleScenario.node[87].veinsmobility 	stopTime 	450
scalar RSUExampleScenario.node[87].veinsmobility 	minSpeed 	0
scalar RSUExampleScenario.node[87].veinsmobility 	maxSpeed 	13.826165703107
scalar RSUExampleScenario.node[87].veinsmobility 	totalDistance 	249.60609652012
scalar RSUExampleScenario.node[87].veinsmobility 	totalCO2Emission 	299.33458320877
scalar RSUExampleScenario.node[88].appl 	meanClusterNodes 	4
scalar RSUExampleScenario.node[88].appl 	meanClusterHeadUtility 	22.926543751867
scalar RSUExampleScenario.node[88].appl 	NumberofCH 	0.054054054054054
scalar RSUExampleScenario.node[88].appl 	NumberofON 	0.40540540540541
scalar RSUExampleScenario.node[88].appl 	NumberofFN 	0.54054054054054
scalar RSUExampleScenario.node[88].veinsmobility 	startTime 	212.1
scalar RSUExampleScenario.node[88].veinsmobility 	totalTime 	237.9
scalar RSUExampleScenario.node[88].veinsmobility 	stopTime 	450
scalar RSUExampleScenario.node[88].veinsmobility 	minSpeed 	0
scalar RSUExampleScenario.node[88].veinsmobility 	maxSpeed 	13.823495806182
scalar RSUExampleScenario.node[88].veinsmobility 	totalDistance 	225.67612506325
scalar RSUExampleScenario.node[88].veinsmobility 	totalCO2Emission 	286.83263195641
scalar RSUExampleScenario.node[89].appl 	meanClusterNodes 	5
scalar RSUExampleScenario.node[89].appl 	meanClusterHeadUtility 	17.639782031648
scalar RSUExampleScenario.node[89].appl 	NumberofCH 	0.054054054054054
scalar RSUExampleScenario.node[89].appl 	NumberofON 	0.51351351351351
scalar RSUExampleScenario.node[89].appl 	NumberofFN 	0.43243243243243
scalar RSUExampleScenario.node[89].veinsmobility 	startTime 	214.5
scalar RSUExampleScenario.node[89].veinsmobility 	totalTime 	235.5
scalar RSUExampleScenario.node[89].veinsmobility 	stopTime 	450
scalar RSUExampleScenario.node[89].veinsmobility 	minSpeed 	0
scalar RSUExampleScenario.node[89].veinsmobility 	maxSpeed 	13.842167548261
scalar RSUExampleScenario.node[89].veinsmobility 	totalDistance 	215.15534090601
scalar RSUExampleScenario.node[89].veinsmobility 	totalCO2Emission 	282.68407094549
scalar RSUExampleScenario.node[9].appl 	meanClusterNodes 	0
scalar RSUExampleScenario.node[9].appl 	meanClusterHeadUtility 	0
scalar RSUExampleScenario.node[9].appl 	NumberofCH 	0
scalar RSUExampleScenario.node[9].appl 	NumberofON 	0.16216216216216
scalar RSUExampleScenario.node[9].appl 	NumberofFN 	0.83783783783784
scalar RSUExampleScenario.node[9].veinsmobility 	startTime 	21.7
scalar RSUExampleScenario.node[9].veinsmobility 	totalTime 	428.3
scalar RSUExampleScenario.node[9].veinsmobility 	stopTime 	450
scalar RSUExampleScenario.node[9].veinsmobility 	minSpeed 	0
scalar RSUExampleScenario.node[9].veinsmobility 	maxSpeed 	13.999986796167
scalar RSUExampleScenario.node[9].veinsmobility 	totalDistance 	2824.7385944402
scalar RSUExampleScenario.node[9].veinsmobility 	totalCO2Emission 	765.43982498428
scalar RSUExampleScenario.node[90].appl 	meanClusterNodes 	7.5
scalar RSUExampleScenario.node[90].appl 	meanClusterHeadUtility 	18.457913320101
scalar RSUExampleScenario.node[90].appl 	NumberofCH 	0.054054054054054
scalar RSUExampleScenario.node[90].appl 	NumberofON 	0.35135135135135
scalar RSUExampleScenario.node[90].appl 	NumberofFN 	0.59459459459459
scalar RSUExampleScenario.node[90].veinsmobility 	startTime 	217
scalar RSUExampleScenario.node[90].veinsmobility 	totalTime 	233
scalar RSUExampleScenario.node[90].veinsmobility 	stopTime 	450
scalar RSUExampleScenario.node[90].veinsmobility 	minSpeed 	0
scalar RSUExampleScenario.node[90].veinsmobility 	maxSpeed 	13.780898084216
scalar RSUExampleScenario.node[90].veinsmobility 	totalDistance 	201.77963350815
scalar RSUExampleScenario.node[90].veinsmobility 	totalCO2Emission 	279.49492850421
scalar RSUExampleScenario.node[91].appl 	meanClusterNodes 	3
scalar RSUExampleScenario.node[91].appl 	meanClusterHeadUtility 	17.324288754589
scalar RSUExampleScenario.node[91].appl 	NumberofCH 	0.054054054054054
scalar RSUExampleScenario.node[91].appl 	NumberofON 	0.32432432432432
scalar RSUExampleScenario.node[91].appl 	NumberofFN 	0.62162162162162
scalar RSUExampleScenario.node[91].veinsmobility 	startTime 	219.4
scalar RSUExampleScenario.node[91].veinsmobility 	totalTime 	230.6
scalar RSUExampleScenario.node[91].veinsmobility 	stopTime 	450
scalar RSUExampleScenario.node[91].veinsmobility 	minSpeed 	0
scalar RSUExampleScenario.node[91].veinsmobility 	maxSpeed 	13.790340202395
scalar RSUExampleScenario.node[91].veinsmobility 	totalDistance 	185.38481266926
scalar RSUExampleScenario.node[91].veinsmobility 	totalCO2Emission 	277.19527115507
scalar RSUExampleScenario.node[92].appl 	meanClusterNodes 	2.5
scalar RSUExampleScenario.node[92].appl 	meanClusterHeadUtility 	19.392611538272
scalar RSUExampleScenario.node[92].appl 	NumberofCH 	0.054054054054054
scalar RSUExampleScenario.node[92].appl 	NumberofON 	0.56756756756757
scalar RSUExampleScenario.node[92].appl 	NumberofFN 	0.37837837837838
scalar RSUExampleScenario.node[92].veinsmobility 	startTime 	221.8
scalar RSUExampleScenario.node[92].veinsmobility 	totalTime 	228.2
scalar RSUExampleScenario.node[92].veinsmobility 	stopTime 	450
scalar RSUExampleScenario.node[92].veinsmobility 	minSpeed 	0
scalar RSUExampleScenario.node[92].veinsmobility 	maxSpeed 	13.876253975672
scalar RSUExampleScenario.node[92].veinsmobility 	totalDistance 	151.9701455367
scalar RSUExampleScenario.node[92].veinsmobility 	totalCO2Emission 	265.19408282015
scalar RSUExampleScenario.node[93].appl 	meanClusterNodes 	7
scalar RSUExampleScenario.node[93].appl 	meanClusterHeadUtility 	19.171697745475
scalar RSUExampleScenario.node[93].appl 	NumberofCH 	0.054054054054054
scalar RSUExampleScenario.node[93].appl 	NumberofON 	0.43243243243243
scalar RSUExampleScenario.node[93].appl 	NumberofFN 	0.51351351351351
scalar RSUExampleScenario.node[93].veinsmobility 	startTime 	224.2
scalar RSUExampleScenario.node[93].veinsmobility 	totalTime 	225.8
scalar RSUExampleScenario.node[93].veinsmobility 	stopTime 	450
scalar RSUExampleScenario.node[93].veinsmobility 	minSpeed 	0
scalar RSUExampleScenario.node[93].veinsmobility 	maxSpeed 	13.77616945482
scalar RSUExampleScenario.node[93].veinsmobility 	totalDistance 	123.65607487033
scalar RSUExampleScenario.node[93].veinsmobility 	totalCO2Emission 	251.27114200975
scalar RSUExampleScenario.node[94].appl 	meanClusterNodes 	0
scalar RSUExampleScenario.node[94].appl 	meanClusterHeadUtility 	0
scalar RSUExampleScenario.node[94].appl 	NumberofCH 	0
scalar RSUExampleScenario.node[94].appl 	NumberofON 	0.48648648648649
scalar RSUExampleScenario.node[94].appl 	NumberofFN 	0.51351351351351
scalar RSUExampleScenario.node[94].veinsmobility 	startTime 	226.6
scalar RSUExampleScenario.node[94].veinsmobility 	totalTime 	223.4
scalar RSUExampleScenario.node[94].veinsmobility 	stopTime 	450
scalar RSUExampleScenario.node[94].veinsmobility 	minSpeed 	0
scalar RSUExampleScenario.node[94].veinsmobility 	maxSpeed 	13.823325835961
scalar RSUExampleScenario.node[94].veinsmobility 	totalDistance 	112.17782521032
scalar RSUExampleScenario.node[94].veinsmobility 	totalCO2Emission 	245.6982638429
scalar RSUExampleScenario.node[95].appl 	meanClusterNodes 	8.5
scalar RSUExampleScenario.node[95].appl 	meanClusterHeadUtility 	17.723132158984
scalar RSUExampleScenario.node[95].appl 	NumberofCH 	0.054054054054054
scalar RSUExampleScenario.node[95].appl 	NumberofON 	0.27027027027027
scalar RSUExampleScenario.node[95].appl 	NumberofFN 	0.67567567567568
scalar RSUExampleScenario.node[95].veinsmobility 	startTime 	229
scalar RSUExampleScenario.node[95].veinsmobility 	totalTime 	221
scalar RSUExampleScenario.node[95].veinsmobility 	stopTime 	450
scalar RSUExampleScenario.node[95].veinsmobility 	minSpeed 	0
scalar RSUExampleScenario.node[95].veinsmobility 	maxSpeed 	13.699170582843
scalar RSUExampleScenario.node[95].veinsmobility 	totalDistance 	99.045092845887
scalar RSUExampleScenario.node[95].veinsmobility 	totalCO2Emission 	242.10693866256
scalar RSUExampleScenario.node[96].appl 	meanClusterNodes 	11.5
scalar RSUExampleScenario.node[96].appl 	meanClusterHeadUtility 	19.089280882948
scalar RSUExampleScenario.node[96].appl 	NumberofCH 	0.054054054054054
scalar RSUExampleScenario.node[96].appl 	NumberofON 	0.21621621621622
scalar RSUExampleScenario.node[96].appl 	NumberofFN 	0.72972972972973
scalar RSUExampleScenario.node[96].veinsmobility 	startTime 	231.4
scalar RSUExampleScenario.node[96].veinsmobility 	totalTime 	218.6
scalar RSUExampleScenario.node[96].veinsmobility 	stopTime 	450
scalar RSUExampleScenario.node[96].veinsmobility 	minSpeed 	0
scalar RSUExampleScenario.node[96].veinsmobility 	maxSpeed 	13.772686374744
scalar RSUExampleScenario.node[96].veinsmobility 	totalDistance 	83.256177250308
scalar RSUExampleScenario.node[96].veinsmobility 	totalCO2Emission 	239.71224980824
scalar RSUExampleScenario.node[97].appl 	meanClusterNodes 	4
scalar RSUExampleScenario.node[97].appl 	meanClusterHeadUtility 	19.349227099493
scalar RSUExampleScenario.node[97].appl 	NumberofCH 	0.054054054054054
scalar RSUExampleScenario.node[97].appl 	NumberofON 	0.45945945945946
scalar RSUExampleScenario.node[97].appl 	NumberofFN 	0.48648648648649
scalar RSUExampleScenario.node[97].veinsmobility 	startTime 	233.8
scalar RSUExampleScenario.node[97].veinsmobility 	totalTime 	216.2
scalar RSUExampleScenario.node[97].veinsmobility 	stopTime 	450
scalar RSUExampleScenario.node[97].veinsmobility 	minSpeed 	0
scalar RSUExampleScenario.node[97].veinsmobility 	maxSpeed 	12.161390027435
scalar RSUExampleScenario.node[97].veinsmobility 	totalDistance 	54.66587716546
scalar RSUExampleScenario.node[97].veinsmobility 	totalCO2Emission 	231.34808969863
scalar RSUExampleScenario.node[98].appl 	meanClusterNodes 	4.5
scalar RSUExampleScenario.node[98].appl 	meanClusterHeadUtility 	18.259334659718
scalar RSUExampleScenario.node[98].appl 	NumberofCH 	0.054054054054054
scalar RSUExampleScenario.node[98].appl 	NumberofON 	0.45945945945946
scalar RSUExampleScenario.node[98].appl 	NumberofFN 	0.48648648648649
scalar RSUExampleScenario.node[98].veinsmobility 	startTime 	236.2
scalar RSUExampleScenario.node[98].veinsmobility 	totalTime 	213.8
scalar RSUExampleScenario.node[98].veinsmobility 	stopTime 	450
scalar RSUExampleScenario.node[98].veinsmobility 	minSpeed 	0
scalar RSUExampleScenario.node[98].veinsmobility 	maxSpeed 	7.7181755435489
scalar RSUExampleScenario.node[98].veinsmobility 	totalDistance 	21.961015008069
scalar RSUExampleScenario.node[98].veinsmobility 	totalCO2Emission 	216.59684654016
scalar RSUExampleScenario.node[99].appl 	meanClusterNodes 	9.5
scalar RSUExampleScenario.node[99].appl 	meanClusterHeadUtility 	18.561096243597
scalar RSUExampleScenario.node[99].appl 	NumberofCH 	0.054054054054054
scalar RSUExampleScenario.node[99].appl 	NumberofON 	0.18918918918919
scalar RSUExampleScenario.node[99].appl 	NumberofFN 	0.75675675675676
scalar RSUExampleScenario.node[99].veinsmobility 	startTime 	238.6
scalar RSUExampleScenario.node[99].veinsmobility 	totalTime 	211.4
scalar RSUExampleScenario.node[99].veinsmobility 	stopTime 	450
scalar RSUExampleScenario.node[99].veinsmobility 	minSpeed 	0
scalar RSUExampleScenario.node[99].veinsmobility 	maxSpeed 	3.2131686320636
scalar RSUExampleScenario.node[99].veinsmobility 	totalDistance 	3.4283959501949
scalar RSUExampleScenario.node[99].veinsmobility 	totalCO2Emission 	207.20841650665
