version 2
run statistic3-1468-20150325-10:05:53-21188
attr c 23
attr configname statistic3
attr datetime 20150325-10:05:53
attr experiment statistic3
attr inifile omnetpp.ini
attr iterationvars "$p=1/10, $c=23"
attr iterationvars2 "$p=1/10, $c=23, $repetition=68"
attr measurement "$p=1/10, $c=23"
attr network RSUExampleScenario
attr p 1/10
attr processid 21188
attr repetition 68
attr replication #68
attr resultdir results
attr runnumber 1468
attr seedset 1468

scalar . 	c 	23
scalar RSUExampleScenario.rsu[0].appl 	NumberofCH 	11
scalar RSUExampleScenario.rsu[0].appl 	NumberofON 	89
scalar RSUExampleScenario.rsu[0].appl 	NumberofFN 	0
scalar RSUExampleScenario.rsu[0].appl 	meanClusterNodes 	8.0909090909091
scalar RSUExampleScenario.rsu[0].appl 	varClusterNodes 	3.0287874998105
scalar RSUExampleScenario.rsu[0].appl 	sumCHutility 	420.88834718449
scalar RSUExampleScenario.rsu[0].appl 	meanCHutility 	38.262577016772
scalar RSUExampleScenario.rsu[0].appl 	varCHutility 	1.1436651040572
scalar RSUExampleScenario.rsu[0].appl 	sumDiffCHutility 	-44.760861301992
scalar RSUExampleScenario.rsu[0].appl 	meanDiffCHutility 	-4.069169209272
scalar RSUExampleScenario.rsu[0].appl 	varDiffCHutility 	1.1925569668283
scalar RSUExampleScenario.rsu[0].appl 	expectedCHutility 	376.12748588249
scalar RSUExampleScenario.rsu[0].appl 	meanExpectedCHutility 	34.1934078075
scalar RSUExampleScenario.rsu[0].appl 	varExpectedCHutility 	0.42102321393308
scalar RSUExampleScenario.node[0].veinsmobility 	startTime 	0.1
scalar RSUExampleScenario.node[0].veinsmobility 	totalTime 	349.9
scalar RSUExampleScenario.node[0].veinsmobility 	stopTime 	350
scalar RSUExampleScenario.node[0].veinsmobility 	minSpeed 	0
scalar RSUExampleScenario.node[0].veinsmobility 	maxSpeed 	13.999877165349
scalar RSUExampleScenario.node[0].veinsmobility 	totalDistance 	3131.089674456
scalar RSUExampleScenario.node[0].veinsmobility 	totalCO2Emission 	744.17512407421
scalar RSUExampleScenario.node[1].veinsmobility 	startTime 	2.5
scalar RSUExampleScenario.node[1].veinsmobility 	totalTime 	347.5
scalar RSUExampleScenario.node[1].veinsmobility 	stopTime 	350
scalar RSUExampleScenario.node[1].veinsmobility 	minSpeed 	0
scalar RSUExampleScenario.node[1].veinsmobility 	maxSpeed 	13.999963874314
scalar RSUExampleScenario.node[1].veinsmobility 	totalDistance 	3081.9770988959
scalar RSUExampleScenario.node[1].veinsmobility 	totalCO2Emission 	730.01663987283
scalar RSUExampleScenario.node[10].veinsmobility 	startTime 	24.2
scalar RSUExampleScenario.node[10].veinsmobility 	totalTime 	325.8
scalar RSUExampleScenario.node[10].veinsmobility 	stopTime 	350
scalar RSUExampleScenario.node[10].veinsmobility 	minSpeed 	0
scalar RSUExampleScenario.node[10].veinsmobility 	maxSpeed 	13.999857883735
scalar RSUExampleScenario.node[10].veinsmobility 	totalDistance 	2789.4306570156
scalar RSUExampleScenario.node[10].veinsmobility 	totalCO2Emission 	662.45937582263
scalar RSUExampleScenario.node[11].veinsmobility 	startTime 	26.6
scalar RSUExampleScenario.node[11].veinsmobility 	totalTime 	323.4
scalar RSUExampleScenario.node[11].veinsmobility 	stopTime 	350
scalar RSUExampleScenario.node[11].veinsmobility 	minSpeed 	0
scalar RSUExampleScenario.node[11].veinsmobility 	maxSpeed 	13.999910362123
scalar RSUExampleScenario.node[11].veinsmobility 	totalDistance 	2759.4748477376
scalar RSUExampleScenario.node[11].veinsmobility 	totalCO2Emission 	655.82281548275
scalar RSUExampleScenario.node[12].veinsmobility 	startTime 	29
scalar RSUExampleScenario.node[12].veinsmobility 	totalTime 	321
scalar RSUExampleScenario.node[12].veinsmobility 	stopTime 	350
scalar RSUExampleScenario.node[12].veinsmobility 	minSpeed 	0
scalar RSUExampleScenario.node[12].veinsmobility 	maxSpeed 	13.999950999101
scalar RSUExampleScenario.node[12].veinsmobility 	totalDistance 	2718.1187960155
scalar RSUExampleScenario.node[12].veinsmobility 	totalCO2Emission 	650.21957897794
scalar RSUExampleScenario.node[13].veinsmobility 	startTime 	31.4
scalar RSUExampleScenario.node[13].veinsmobility 	totalTime 	318.6
scalar RSUExampleScenario.node[13].veinsmobility 	stopTime 	350
scalar RSUExampleScenario.node[13].veinsmobility 	minSpeed 	0
scalar RSUExampleScenario.node[13].veinsmobility 	maxSpeed 	13.999946266913
scalar RSUExampleScenario.node[13].veinsmobility 	totalDistance 	2684.5685838165
scalar RSUExampleScenario.node[13].veinsmobility 	totalCO2Emission 	642.54777663595
scalar RSUExampleScenario.node[14].veinsmobility 	startTime 	33.8
scalar RSUExampleScenario.node[14].veinsmobility 	totalTime 	316.2
scalar RSUExampleScenario.node[14].veinsmobility 	stopTime 	350
scalar RSUExampleScenario.node[14].veinsmobility 	minSpeed 	0
scalar RSUExampleScenario.node[14].veinsmobility 	maxSpeed 	13.999867984736
scalar RSUExampleScenario.node[14].veinsmobility 	totalDistance 	2649.764499507
scalar RSUExampleScenario.node[14].veinsmobility 	totalCO2Emission 	635.99693604522
scalar RSUExampleScenario.node[15].veinsmobility 	startTime 	36.2
scalar RSUExampleScenario.node[15].veinsmobility 	totalTime 	313.8
scalar RSUExampleScenario.node[15].veinsmobility 	stopTime 	350
scalar RSUExampleScenario.node[15].veinsmobility 	minSpeed 	0
scalar RSUExampleScenario.node[15].veinsmobility 	maxSpeed 	13.99998158959
scalar RSUExampleScenario.node[15].veinsmobility 	totalDistance 	2617.4845036101
scalar RSUExampleScenario.node[15].veinsmobility 	totalCO2Emission 	631.19773019853
scalar RSUExampleScenario.node[16].veinsmobility 	startTime 	38.6
scalar RSUExampleScenario.node[16].veinsmobility 	totalTime 	311.4
scalar RSUExampleScenario.node[16].veinsmobility 	stopTime 	350
scalar RSUExampleScenario.node[16].veinsmobility 	minSpeed 	0
scalar RSUExampleScenario.node[16].veinsmobility 	maxSpeed 	13.999910723977
scalar RSUExampleScenario.node[16].veinsmobility 	totalDistance 	2578.8089697946
scalar RSUExampleScenario.node[16].veinsmobility 	totalCO2Emission 	625.93883785962
scalar RSUExampleScenario.node[17].veinsmobility 	startTime 	41
scalar RSUExampleScenario.node[17].veinsmobility 	totalTime 	309
scalar RSUExampleScenario.node[17].veinsmobility 	stopTime 	350
scalar RSUExampleScenario.node[17].veinsmobility 	minSpeed 	0
scalar RSUExampleScenario.node[17].veinsmobility 	maxSpeed 	13.999976107816
scalar RSUExampleScenario.node[17].veinsmobility 	totalDistance 	2543.0986335679
scalar RSUExampleScenario.node[17].veinsmobility 	totalCO2Emission 	621.4052448702
scalar RSUExampleScenario.node[18].veinsmobility 	startTime 	43.4
scalar RSUExampleScenario.node[18].veinsmobility 	totalTime 	306.6
scalar RSUExampleScenario.node[18].veinsmobility 	stopTime 	350
scalar RSUExampleScenario.node[18].veinsmobility 	minSpeed 	0
scalar RSUExampleScenario.node[18].veinsmobility 	maxSpeed 	13.999941208013
scalar RSUExampleScenario.node[18].veinsmobility 	totalDistance 	2505.0538074563
scalar RSUExampleScenario.node[18].veinsmobility 	totalCO2Emission 	613.97734606104
scalar RSUExampleScenario.node[19].veinsmobility 	startTime 	45.8
scalar RSUExampleScenario.node[19].veinsmobility 	totalTime 	304.2
scalar RSUExampleScenario.node[19].veinsmobility 	stopTime 	350
scalar RSUExampleScenario.node[19].veinsmobility 	minSpeed 	0
scalar RSUExampleScenario.node[19].veinsmobility 	maxSpeed 	13.999802300518
scalar RSUExampleScenario.node[19].veinsmobility 	totalDistance 	2474.6850261008
scalar RSUExampleScenario.node[19].veinsmobility 	totalCO2Emission 	608.40245573227
scalar RSUExampleScenario.node[2].veinsmobility 	startTime 	4.9
scalar RSUExampleScenario.node[2].veinsmobility 	totalTime 	345.1
scalar RSUExampleScenario.node[2].veinsmobility 	stopTime 	350
scalar RSUExampleScenario.node[2].veinsmobility 	minSpeed 	0
scalar RSUExampleScenario.node[2].veinsmobility 	maxSpeed 	13.999927029763
scalar RSUExampleScenario.node[2].veinsmobility 	totalDistance 	3035.47353694
scalar RSUExampleScenario.node[2].veinsmobility 	totalCO2Emission 	726.38998120793
scalar RSUExampleScenario.node[20].veinsmobility 	startTime 	48.3
scalar RSUExampleScenario.node[20].veinsmobility 	totalTime 	301.7
scalar RSUExampleScenario.node[20].veinsmobility 	stopTime 	350
scalar RSUExampleScenario.node[20].veinsmobility 	minSpeed 	0
scalar RSUExampleScenario.node[20].veinsmobility 	maxSpeed 	13.99978336741
scalar RSUExampleScenario.node[20].veinsmobility 	totalDistance 	2436.1407709019
scalar RSUExampleScenario.node[20].veinsmobility 	totalCO2Emission 	603.95668789095
scalar RSUExampleScenario.node[21].veinsmobility 	startTime 	50.7
scalar RSUExampleScenario.node[21].veinsmobility 	totalTime 	299.3
scalar RSUExampleScenario.node[21].veinsmobility 	stopTime 	350
scalar RSUExampleScenario.node[21].veinsmobility 	minSpeed 	0
scalar RSUExampleScenario.node[21].veinsmobility 	maxSpeed 	13.999886702185
scalar RSUExampleScenario.node[21].veinsmobility 	totalDistance 	2408.9287583088
scalar RSUExampleScenario.node[21].veinsmobility 	totalCO2Emission 	595.46355973889
scalar RSUExampleScenario.node[22].veinsmobility 	startTime 	53.1
scalar RSUExampleScenario.node[22].veinsmobility 	totalTime 	296.9
scalar RSUExampleScenario.node[22].veinsmobility 	stopTime 	350
scalar RSUExampleScenario.node[22].veinsmobility 	minSpeed 	0
scalar RSUExampleScenario.node[22].veinsmobility 	maxSpeed 	13.999912385659
scalar RSUExampleScenario.node[22].veinsmobility 	totalDistance 	2368.3021539864
scalar RSUExampleScenario.node[22].veinsmobility 	totalCO2Emission 	594.59292444191
scalar RSUExampleScenario.node[23].veinsmobility 	startTime 	55.5
scalar RSUExampleScenario.node[23].veinsmobility 	totalTime 	294.5
scalar RSUExampleScenario.node[23].veinsmobility 	stopTime 	350
scalar RSUExampleScenario.node[23].veinsmobility 	minSpeed 	0
scalar RSUExampleScenario.node[23].veinsmobility 	maxSpeed 	13.999941611788
scalar RSUExampleScenario.node[23].veinsmobility 	totalDistance 	2339.7419630247
scalar RSUExampleScenario.node[23].veinsmobility 	totalCO2Emission 	586.62111942526
scalar RSUExampleScenario.node[24].veinsmobility 	startTime 	57.9
scalar RSUExampleScenario.node[24].veinsmobility 	totalTime 	292.1
scalar RSUExampleScenario.node[24].veinsmobility 	stopTime 	350
scalar RSUExampleScenario.node[24].veinsmobility 	minSpeed 	0
scalar RSUExampleScenario.node[24].veinsmobility 	maxSpeed 	13.999823180796
scalar RSUExampleScenario.node[24].veinsmobility 	totalDistance 	2302.7812335252
scalar RSUExampleScenario.node[24].veinsmobility 	totalCO2Emission 	581.23978337001
scalar RSUExampleScenario.node[25].veinsmobility 	startTime 	60.3
scalar RSUExampleScenario.node[25].veinsmobility 	totalTime 	289.7
scalar RSUExampleScenario.node[25].veinsmobility 	stopTime 	350
scalar RSUExampleScenario.node[25].veinsmobility 	minSpeed 	0
scalar RSUExampleScenario.node[25].veinsmobility 	maxSpeed 	13.999984929934
scalar RSUExampleScenario.node[25].veinsmobility 	totalDistance 	2274.0832709666
scalar RSUExampleScenario.node[25].veinsmobility 	totalCO2Emission 	575.24069421456
scalar RSUExampleScenario.node[26].veinsmobility 	startTime 	62.7
scalar RSUExampleScenario.node[26].veinsmobility 	totalTime 	287.3
scalar RSUExampleScenario.node[26].veinsmobility 	stopTime 	350
scalar RSUExampleScenario.node[26].veinsmobility 	minSpeed 	0
scalar RSUExampleScenario.node[26].veinsmobility 	maxSpeed 	13.999953206575
scalar RSUExampleScenario.node[26].veinsmobility 	totalDistance 	2233.0821275298
scalar RSUExampleScenario.node[26].veinsmobility 	totalCO2Emission 	570.21164619142
scalar RSUExampleScenario.node[27].veinsmobility 	startTime 	65.1
scalar RSUExampleScenario.node[27].veinsmobility 	totalTime 	284.9
scalar RSUExampleScenario.node[27].veinsmobility 	stopTime 	350
scalar RSUExampleScenario.node[27].veinsmobility 	minSpeed 	0
scalar RSUExampleScenario.node[27].veinsmobility 	maxSpeed 	13.999976957589
scalar RSUExampleScenario.node[27].veinsmobility 	totalDistance 	2203.6414106032
scalar RSUExampleScenario.node[27].veinsmobility 	totalCO2Emission 	562.92252569113
scalar RSUExampleScenario.node[28].veinsmobility 	startTime 	67.5
scalar RSUExampleScenario.node[28].veinsmobility 	totalTime 	282.5
scalar RSUExampleScenario.node[28].veinsmobility 	stopTime 	350
scalar RSUExampleScenario.node[28].veinsmobility 	minSpeed 	0
scalar RSUExampleScenario.node[28].veinsmobility 	maxSpeed 	13.99992965884
scalar RSUExampleScenario.node[28].veinsmobility 	totalDistance 	2166.6844630665
scalar RSUExampleScenario.node[28].veinsmobility 	totalCO2Emission 	556.7162135581
scalar RSUExampleScenario.node[29].veinsmobility 	startTime 	69.9
scalar RSUExampleScenario.node[29].veinsmobility 	totalTime 	280.1
scalar RSUExampleScenario.node[29].veinsmobility 	stopTime 	350
scalar RSUExampleScenario.node[29].veinsmobility 	minSpeed 	0
scalar RSUExampleScenario.node[29].veinsmobility 	maxSpeed 	13.99933181837
scalar RSUExampleScenario.node[29].veinsmobility 	totalDistance 	2135.1005974915
scalar RSUExampleScenario.node[29].veinsmobility 	totalCO2Emission 	552.21116111408
scalar RSUExampleScenario.node[3].veinsmobility 	startTime 	7.3
scalar RSUExampleScenario.node[3].veinsmobility 	totalTime 	342.7
scalar RSUExampleScenario.node[3].veinsmobility 	stopTime 	350
scalar RSUExampleScenario.node[3].veinsmobility 	minSpeed 	0
scalar RSUExampleScenario.node[3].veinsmobility 	maxSpeed 	13.999945823336
scalar RSUExampleScenario.node[3].veinsmobility 	totalDistance 	2998.1607157889
scalar RSUExampleScenario.node[3].veinsmobility 	totalCO2Emission 	719.08481950349
scalar RSUExampleScenario.node[30].veinsmobility 	startTime 	72.4
scalar RSUExampleScenario.node[30].veinsmobility 	totalTime 	277.6
scalar RSUExampleScenario.node[30].veinsmobility 	stopTime 	350
scalar RSUExampleScenario.node[30].veinsmobility 	minSpeed 	0
scalar RSUExampleScenario.node[30].veinsmobility 	maxSpeed 	13.999866903897
scalar RSUExampleScenario.node[30].veinsmobility 	totalDistance 	2100.1801662823
scalar RSUExampleScenario.node[30].veinsmobility 	totalCO2Emission 	544.3858006724
scalar RSUExampleScenario.node[31].veinsmobility 	startTime 	74.8
scalar RSUExampleScenario.node[31].veinsmobility 	totalTime 	275.2
scalar RSUExampleScenario.node[31].veinsmobility 	stopTime 	350
scalar RSUExampleScenario.node[31].veinsmobility 	minSpeed 	0
scalar RSUExampleScenario.node[31].veinsmobility 	maxSpeed 	13.999481265056
scalar RSUExampleScenario.node[31].veinsmobility 	totalDistance 	2069.1375358631
scalar RSUExampleScenario.node[31].veinsmobility 	totalCO2Emission 	542.57229452648
scalar RSUExampleScenario.node[32].veinsmobility 	startTime 	77.2
scalar RSUExampleScenario.node[32].veinsmobility 	totalTime 	272.8
scalar RSUExampleScenario.node[32].veinsmobility 	stopTime 	350
scalar RSUExampleScenario.node[32].veinsmobility 	minSpeed 	0
scalar RSUExampleScenario.node[32].veinsmobility 	maxSpeed 	13.999799100738
scalar RSUExampleScenario.node[32].veinsmobility 	totalDistance 	2033.1566362421
scalar RSUExampleScenario.node[32].veinsmobility 	totalCO2Emission 	538.91422695915
scalar RSUExampleScenario.node[33].veinsmobility 	startTime 	79.6
scalar RSUExampleScenario.node[33].veinsmobility 	totalTime 	270.4
scalar RSUExampleScenario.node[33].veinsmobility 	stopTime 	350
scalar RSUExampleScenario.node[33].veinsmobility 	minSpeed 	0
scalar RSUExampleScenario.node[33].veinsmobility 	maxSpeed 	13.999733992398
scalar RSUExampleScenario.node[33].veinsmobility 	totalDistance 	1999.2544813951
scalar RSUExampleScenario.node[33].veinsmobility 	totalCO2Emission 	527.74490760498
scalar RSUExampleScenario.node[34].veinsmobility 	startTime 	82
scalar RSUExampleScenario.node[34].veinsmobility 	totalTime 	268
scalar RSUExampleScenario.node[34].veinsmobility 	stopTime 	350
scalar RSUExampleScenario.node[34].veinsmobility 	minSpeed 	0
scalar RSUExampleScenario.node[34].veinsmobility 	maxSpeed 	13.999885073465
scalar RSUExampleScenario.node[34].veinsmobility 	totalDistance 	1963.5125982092
scalar RSUExampleScenario.node[34].veinsmobility 	totalCO2Emission 	526.81792127657
scalar RSUExampleScenario.node[35].veinsmobility 	startTime 	84.4
scalar RSUExampleScenario.node[35].veinsmobility 	totalTime 	265.6
scalar RSUExampleScenario.node[35].veinsmobility 	stopTime 	350
scalar RSUExampleScenario.node[35].veinsmobility 	minSpeed 	0
scalar RSUExampleScenario.node[35].veinsmobility 	maxSpeed 	13.999993756381
scalar RSUExampleScenario.node[35].veinsmobility 	totalDistance 	1931.1520406707
scalar RSUExampleScenario.node[35].veinsmobility 	totalCO2Emission 	516.35705717578
scalar RSUExampleScenario.node[36].veinsmobility 	startTime 	86.8
scalar RSUExampleScenario.node[36].veinsmobility 	totalTime 	263.2
scalar RSUExampleScenario.node[36].veinsmobility 	stopTime 	350
scalar RSUExampleScenario.node[36].veinsmobility 	minSpeed 	0
scalar RSUExampleScenario.node[36].veinsmobility 	maxSpeed 	13.999989589327
scalar RSUExampleScenario.node[36].veinsmobility 	totalDistance 	1897.0992220247
scalar RSUExampleScenario.node[36].veinsmobility 	totalCO2Emission 	512.87677473278
scalar RSUExampleScenario.node[37].veinsmobility 	startTime 	89.2
scalar RSUExampleScenario.node[37].veinsmobility 	totalTime 	260.8
scalar RSUExampleScenario.node[37].veinsmobility 	stopTime 	350
scalar RSUExampleScenario.node[37].veinsmobility 	minSpeed 	0
scalar RSUExampleScenario.node[37].veinsmobility 	maxSpeed 	13.999955030403
scalar RSUExampleScenario.node[37].veinsmobility 	totalDistance 	1864.7681967765
scalar RSUExampleScenario.node[37].veinsmobility 	totalCO2Emission 	504.17698927607
scalar RSUExampleScenario.node[38].veinsmobility 	startTime 	91.6
scalar RSUExampleScenario.node[38].veinsmobility 	totalTime 	258.4
scalar RSUExampleScenario.node[38].veinsmobility 	stopTime 	350
scalar RSUExampleScenario.node[38].veinsmobility 	minSpeed 	0
scalar RSUExampleScenario.node[38].veinsmobility 	maxSpeed 	13.999878054985
scalar RSUExampleScenario.node[38].veinsmobility 	totalDistance 	1828.5875466002
scalar RSUExampleScenario.node[38].veinsmobility 	totalCO2Emission 	501.25652785756
scalar RSUExampleScenario.node[39].veinsmobility 	startTime 	94
scalar RSUExampleScenario.node[39].veinsmobility 	totalTime 	256
scalar RSUExampleScenario.node[39].veinsmobility 	stopTime 	350
scalar RSUExampleScenario.node[39].veinsmobility 	minSpeed 	0
scalar RSUExampleScenario.node[39].veinsmobility 	maxSpeed 	13.999908791275
scalar RSUExampleScenario.node[39].veinsmobility 	totalDistance 	1796.0271849442
scalar RSUExampleScenario.node[39].veinsmobility 	totalCO2Emission 	492.2363807581
scalar RSUExampleScenario.node[4].veinsmobility 	startTime 	9.7
scalar RSUExampleScenario.node[4].veinsmobility 	totalTime 	340.3
scalar RSUExampleScenario.node[4].veinsmobility 	stopTime 	350
scalar RSUExampleScenario.node[4].veinsmobility 	minSpeed 	0
scalar RSUExampleScenario.node[4].veinsmobility 	maxSpeed 	13.999966582481
scalar RSUExampleScenario.node[4].veinsmobility 	totalDistance 	2946.813014483
scalar RSUExampleScenario.node[4].veinsmobility 	totalCO2Emission 	701.16016798009
scalar RSUExampleScenario.node[40].veinsmobility 	startTime 	96.5
scalar RSUExampleScenario.node[40].veinsmobility 	totalTime 	253.5
scalar RSUExampleScenario.node[40].veinsmobility 	stopTime 	350
scalar RSUExampleScenario.node[40].veinsmobility 	minSpeed 	0
scalar RSUExampleScenario.node[40].veinsmobility 	maxSpeed 	13.999873650025
scalar RSUExampleScenario.node[40].veinsmobility 	totalDistance 	1763.6714580276
scalar RSUExampleScenario.node[40].veinsmobility 	totalCO2Emission 	489.98521389021
scalar RSUExampleScenario.node[41].veinsmobility 	startTime 	98.9
scalar RSUExampleScenario.node[41].veinsmobility 	totalTime 	251.1
scalar RSUExampleScenario.node[41].veinsmobility 	stopTime 	350
scalar RSUExampleScenario.node[41].veinsmobility 	minSpeed 	0
scalar RSUExampleScenario.node[41].veinsmobility 	maxSpeed 	13.999655612244
scalar RSUExampleScenario.node[41].veinsmobility 	totalDistance 	1728.7355901595
scalar RSUExampleScenario.node[41].veinsmobility 	totalCO2Emission 	483.42727008404
scalar RSUExampleScenario.node[42].veinsmobility 	startTime 	101.3
scalar RSUExampleScenario.node[42].veinsmobility 	totalTime 	248.7
scalar RSUExampleScenario.node[42].veinsmobility 	stopTime 	350
scalar RSUExampleScenario.node[42].veinsmobility 	minSpeed 	0
scalar RSUExampleScenario.node[42].veinsmobility 	maxSpeed 	13.99992432656
scalar RSUExampleScenario.node[42].veinsmobility 	totalDistance 	1695.1765051652
scalar RSUExampleScenario.node[42].veinsmobility 	totalCO2Emission 	477.54471022721
scalar RSUExampleScenario.node[43].veinsmobility 	startTime 	103.7
scalar RSUExampleScenario.node[43].veinsmobility 	totalTime 	246.3
scalar RSUExampleScenario.node[43].veinsmobility 	stopTime 	350
scalar RSUExampleScenario.node[43].veinsmobility 	minSpeed 	0
scalar RSUExampleScenario.node[43].veinsmobility 	maxSpeed 	13.999685324295
scalar RSUExampleScenario.node[43].veinsmobility 	totalDistance 	1662.3174046999
scalar RSUExampleScenario.node[43].veinsmobility 	totalCO2Emission 	474.97900403382
scalar RSUExampleScenario.node[44].veinsmobility 	startTime 	106.1
scalar RSUExampleScenario.node[44].veinsmobility 	totalTime 	243.9
scalar RSUExampleScenario.node[44].veinsmobility 	stopTime 	350
scalar RSUExampleScenario.node[44].veinsmobility 	minSpeed 	0
scalar RSUExampleScenario.node[44].veinsmobility 	maxSpeed 	13.999873033799
scalar RSUExampleScenario.node[44].veinsmobility 	totalDistance 	1628.3814354338
scalar RSUExampleScenario.node[44].veinsmobility 	totalCO2Emission 	465.94232803657
scalar RSUExampleScenario.node[45].veinsmobility 	startTime 	108.5
scalar RSUExampleScenario.node[45].veinsmobility 	totalTime 	241.5
scalar RSUExampleScenario.node[45].veinsmobility 	stopTime 	350
scalar RSUExampleScenario.node[45].veinsmobility 	minSpeed 	0
scalar RSUExampleScenario.node[45].veinsmobility 	maxSpeed 	13.999925661227
scalar RSUExampleScenario.node[45].veinsmobility 	totalDistance 	1594.8811602587
scalar RSUExampleScenario.node[45].veinsmobility 	totalCO2Emission 	459.97024700194
scalar RSUExampleScenario.node[46].veinsmobility 	startTime 	110.9
scalar RSUExampleScenario.node[46].veinsmobility 	totalTime 	239.1
scalar RSUExampleScenario.node[46].veinsmobility 	stopTime 	350
scalar RSUExampleScenario.node[46].veinsmobility 	minSpeed 	0
scalar RSUExampleScenario.node[46].veinsmobility 	maxSpeed 	13.999862343057
scalar RSUExampleScenario.node[46].veinsmobility 	totalDistance 	1562.4181050586
scalar RSUExampleScenario.node[46].veinsmobility 	totalCO2Emission 	455.45560972157
scalar RSUExampleScenario.node[47].veinsmobility 	startTime 	113.3
scalar RSUExampleScenario.node[47].veinsmobility 	totalTime 	236.7
scalar RSUExampleScenario.node[47].veinsmobility 	stopTime 	350
scalar RSUExampleScenario.node[47].veinsmobility 	minSpeed 	0
scalar RSUExampleScenario.node[47].veinsmobility 	maxSpeed 	13.999979554219
scalar RSUExampleScenario.node[47].veinsmobility 	totalDistance 	1527.8710039606
scalar RSUExampleScenario.node[47].veinsmobility 	totalCO2Emission 	451.14651722469
scalar RSUExampleScenario.node[48].veinsmobility 	startTime 	115.7
scalar RSUExampleScenario.node[48].veinsmobility 	totalTime 	234.3
scalar RSUExampleScenario.node[48].veinsmobility 	stopTime 	350
scalar RSUExampleScenario.node[48].veinsmobility 	minSpeed 	0
scalar RSUExampleScenario.node[48].veinsmobility 	maxSpeed 	13.999946901845
scalar RSUExampleScenario.node[48].veinsmobility 	totalDistance 	1496.8242080497
scalar RSUExampleScenario.node[48].veinsmobility 	totalCO2Emission 	441.4367373461
scalar RSUExampleScenario.node[49].veinsmobility 	startTime 	118.1
scalar RSUExampleScenario.node[49].veinsmobility 	totalTime 	231.9
scalar RSUExampleScenario.node[49].veinsmobility 	stopTime 	350
scalar RSUExampleScenario.node[49].veinsmobility 	minSpeed 	0
scalar RSUExampleScenario.node[49].veinsmobility 	maxSpeed 	13.999681163991
scalar RSUExampleScenario.node[49].veinsmobility 	totalDistance 	1460.276832045
scalar RSUExampleScenario.node[49].veinsmobility 	totalCO2Emission 	437.95490182825
scalar RSUExampleScenario.node[5].veinsmobility 	startTime 	12.1
scalar RSUExampleScenario.node[5].veinsmobility 	totalTime 	337.9
scalar RSUExampleScenario.node[5].veinsmobility 	stopTime 	350
scalar RSUExampleScenario.node[5].veinsmobility 	minSpeed 	0
scalar RSUExampleScenario.node[5].veinsmobility 	maxSpeed 	13.999969961478
scalar RSUExampleScenario.node[5].veinsmobility 	totalDistance 	2918.0183397687
scalar RSUExampleScenario.node[5].veinsmobility 	totalCO2Emission 	684.76359572854
scalar RSUExampleScenario.node[50].veinsmobility 	startTime 	120.6
scalar RSUExampleScenario.node[50].veinsmobility 	totalTime 	229.4
scalar RSUExampleScenario.node[50].veinsmobility 	stopTime 	350
scalar RSUExampleScenario.node[50].veinsmobility 	minSpeed 	0
scalar RSUExampleScenario.node[50].veinsmobility 	maxSpeed 	13.999969039757
scalar RSUExampleScenario.node[50].veinsmobility 	totalDistance 	1427.5844111023
scalar RSUExampleScenario.node[50].veinsmobility 	totalCO2Emission 	432.73986699259
scalar RSUExampleScenario.node[51].veinsmobility 	startTime 	123
scalar RSUExampleScenario.node[51].veinsmobility 	totalTime 	227
scalar RSUExampleScenario.node[51].veinsmobility 	stopTime 	350
scalar RSUExampleScenario.node[51].veinsmobility 	minSpeed 	0
scalar RSUExampleScenario.node[51].veinsmobility 	maxSpeed 	13.999954223125
scalar RSUExampleScenario.node[51].veinsmobility 	totalDistance 	1393.9325893193
scalar RSUExampleScenario.node[51].veinsmobility 	totalCO2Emission 	426.48279777143
scalar RSUExampleScenario.node[52].veinsmobility 	startTime 	125.4
scalar RSUExampleScenario.node[52].veinsmobility 	totalTime 	224.6
scalar RSUExampleScenario.node[52].veinsmobility 	stopTime 	350
scalar RSUExampleScenario.node[52].veinsmobility 	minSpeed 	0
scalar RSUExampleScenario.node[52].veinsmobility 	maxSpeed 	13.99999756824
scalar RSUExampleScenario.node[52].veinsmobility 	totalDistance 	1358.8440170898
scalar RSUExampleScenario.node[52].veinsmobility 	totalCO2Emission 	424.55595354021
scalar RSUExampleScenario.node[53].veinsmobility 	startTime 	127.8
scalar RSUExampleScenario.node[53].veinsmobility 	totalTime 	222.2
scalar RSUExampleScenario.node[53].veinsmobility 	stopTime 	350
scalar RSUExampleScenario.node[53].veinsmobility 	minSpeed 	0
scalar RSUExampleScenario.node[53].veinsmobility 	maxSpeed 	13.999881968242
scalar RSUExampleScenario.node[53].veinsmobility 	totalDistance 	1325.5022873333
scalar RSUExampleScenario.node[53].veinsmobility 	totalCO2Emission 	416.2619334803
scalar RSUExampleScenario.node[54].veinsmobility 	startTime 	130.2
scalar RSUExampleScenario.node[54].veinsmobility 	totalTime 	219.8
scalar RSUExampleScenario.node[54].veinsmobility 	stopTime 	350
scalar RSUExampleScenario.node[54].veinsmobility 	minSpeed 	0
scalar RSUExampleScenario.node[54].veinsmobility 	maxSpeed 	13.999993136674
scalar RSUExampleScenario.node[54].veinsmobility 	totalDistance 	1294.0170365128
scalar RSUExampleScenario.node[54].veinsmobility 	totalCO2Emission 	409.89274594785
scalar RSUExampleScenario.node[55].veinsmobility 	startTime 	132.6
scalar RSUExampleScenario.node[55].veinsmobility 	totalTime 	217.4
scalar RSUExampleScenario.node[55].veinsmobility 	stopTime 	350
scalar RSUExampleScenario.node[55].veinsmobility 	minSpeed 	0
scalar RSUExampleScenario.node[55].veinsmobility 	maxSpeed 	13.999925060377
scalar RSUExampleScenario.node[55].veinsmobility 	totalDistance 	1258.9625389885
scalar RSUExampleScenario.node[55].veinsmobility 	totalCO2Emission 	406.08033545378
scalar RSUExampleScenario.node[56].veinsmobility 	startTime 	135
scalar RSUExampleScenario.node[56].veinsmobility 	totalTime 	215
scalar RSUExampleScenario.node[56].veinsmobility 	stopTime 	350
scalar RSUExampleScenario.node[56].veinsmobility 	minSpeed 	0
scalar RSUExampleScenario.node[56].veinsmobility 	maxSpeed 	13.999636491111
scalar RSUExampleScenario.node[56].veinsmobility 	totalDistance 	1225.8271100439
scalar RSUExampleScenario.node[56].veinsmobility 	totalCO2Emission 	399.90493055811
scalar RSUExampleScenario.node[57].veinsmobility 	startTime 	137.4
scalar RSUExampleScenario.node[57].veinsmobility 	totalTime 	212.6
scalar RSUExampleScenario.node[57].veinsmobility 	stopTime 	350
scalar RSUExampleScenario.node[57].veinsmobility 	minSpeed 	0
scalar RSUExampleScenario.node[57].veinsmobility 	maxSpeed 	13.999981403563
scalar RSUExampleScenario.node[57].veinsmobility 	totalDistance 	1193.5204743755
scalar RSUExampleScenario.node[57].veinsmobility 	totalCO2Emission 	394.93598996244
scalar RSUExampleScenario.node[58].veinsmobility 	startTime 	139.8
scalar RSUExampleScenario.node[58].veinsmobility 	totalTime 	210.2
scalar RSUExampleScenario.node[58].veinsmobility 	stopTime 	350
scalar RSUExampleScenario.node[58].veinsmobility 	minSpeed 	0
scalar RSUExampleScenario.node[58].veinsmobility 	maxSpeed 	13.99998835064
scalar RSUExampleScenario.node[58].veinsmobility 	totalDistance 	1158.7267348383
scalar RSUExampleScenario.node[58].veinsmobility 	totalCO2Emission 	387.9999619268
scalar RSUExampleScenario.node[59].veinsmobility 	startTime 	142.2
scalar RSUExampleScenario.node[59].veinsmobility 	totalTime 	207.8
scalar RSUExampleScenario.node[59].veinsmobility 	stopTime 	350
scalar RSUExampleScenario.node[59].veinsmobility 	minSpeed 	0
scalar RSUExampleScenario.node[59].veinsmobility 	maxSpeed 	13.999863526111
scalar RSUExampleScenario.node[59].veinsmobility 	totalDistance 	1125.353291277
scalar RSUExampleScenario.node[59].veinsmobility 	totalCO2Emission 	381.12119557299
scalar RSUExampleScenario.node[6].veinsmobility 	startTime 	14.5
scalar RSUExampleScenario.node[6].veinsmobility 	totalTime 	335.5
scalar RSUExampleScenario.node[6].veinsmobility 	stopTime 	350
scalar RSUExampleScenario.node[6].veinsmobility 	minSpeed 	0
scalar RSUExampleScenario.node[6].veinsmobility 	maxSpeed 	13.999874260682
scalar RSUExampleScenario.node[6].veinsmobility 	totalDistance 	2901.34337194
scalar RSUExampleScenario.node[6].veinsmobility 	totalCO2Emission 	680.12423178315
scalar RSUExampleScenario.node[60].veinsmobility 	startTime 	144.7
scalar RSUExampleScenario.node[60].veinsmobility 	totalTime 	205.3
scalar RSUExampleScenario.node[60].veinsmobility 	stopTime 	350
scalar RSUExampleScenario.node[60].veinsmobility 	minSpeed 	0
scalar RSUExampleScenario.node[60].veinsmobility 	maxSpeed 	13.999377767197
scalar RSUExampleScenario.node[60].veinsmobility 	totalDistance 	1091.2823736836
scalar RSUExampleScenario.node[60].veinsmobility 	totalCO2Emission 	377.54008639964
scalar RSUExampleScenario.node[61].veinsmobility 	startTime 	147.1
scalar RSUExampleScenario.node[61].veinsmobility 	totalTime 	202.9
scalar RSUExampleScenario.node[61].veinsmobility 	stopTime 	350
scalar RSUExampleScenario.node[61].veinsmobility 	minSpeed 	0
scalar RSUExampleScenario.node[61].veinsmobility 	maxSpeed 	13.999120666191
scalar RSUExampleScenario.node[61].veinsmobility 	totalDistance 	1058.4163465327
scalar RSUExampleScenario.node[61].veinsmobility 	totalCO2Emission 	369.43456376595
scalar RSUExampleScenario.node[62].veinsmobility 	startTime 	149.5
scalar RSUExampleScenario.node[62].veinsmobility 	totalTime 	200.5
scalar RSUExampleScenario.node[62].veinsmobility 	stopTime 	350
scalar RSUExampleScenario.node[62].veinsmobility 	minSpeed 	0
scalar RSUExampleScenario.node[62].veinsmobility 	maxSpeed 	13.999849368443
scalar RSUExampleScenario.node[62].veinsmobility 	totalDistance 	1024.6265861183
scalar RSUExampleScenario.node[62].veinsmobility 	totalCO2Emission 	366.75429949132
scalar RSUExampleScenario.node[63].veinsmobility 	startTime 	151.9
scalar RSUExampleScenario.node[63].veinsmobility 	totalTime 	198.1
scalar RSUExampleScenario.node[63].veinsmobility 	stopTime 	350
scalar RSUExampleScenario.node[63].veinsmobility 	minSpeed 	0
scalar RSUExampleScenario.node[63].veinsmobility 	maxSpeed 	13.99983668643
scalar RSUExampleScenario.node[63].veinsmobility 	totalDistance 	984.05323632711
scalar RSUExampleScenario.node[63].veinsmobility 	totalCO2Emission 	350.74758925461
scalar RSUExampleScenario.node[64].veinsmobility 	startTime 	154.3
scalar RSUExampleScenario.node[64].veinsmobility 	totalTime 	195.7
scalar RSUExampleScenario.node[64].veinsmobility 	stopTime 	350
scalar RSUExampleScenario.node[64].veinsmobility 	minSpeed 	0
scalar RSUExampleScenario.node[64].veinsmobility 	maxSpeed 	13.999651155858
scalar RSUExampleScenario.node[64].veinsmobility 	totalDistance 	953.8384049424
scalar RSUExampleScenario.node[64].veinsmobility 	totalCO2Emission 	337.08512202574
scalar RSUExampleScenario.node[65].veinsmobility 	startTime 	156.7
scalar RSUExampleScenario.node[65].veinsmobility 	totalTime 	193.3
scalar RSUExampleScenario.node[65].veinsmobility 	stopTime 	350
scalar RSUExampleScenario.node[65].veinsmobility 	minSpeed 	0
scalar RSUExampleScenario.node[65].veinsmobility 	maxSpeed 	13.999939927768
scalar RSUExampleScenario.node[65].veinsmobility 	totalDistance 	940.35775469533
scalar RSUExampleScenario.node[65].veinsmobility 	totalCO2Emission 	330.91398514052
scalar RSUExampleScenario.node[66].veinsmobility 	startTime 	159.1
scalar RSUExampleScenario.node[66].veinsmobility 	totalTime 	190.9
scalar RSUExampleScenario.node[66].veinsmobility 	stopTime 	350
scalar RSUExampleScenario.node[66].veinsmobility 	minSpeed 	0
scalar RSUExampleScenario.node[66].veinsmobility 	maxSpeed 	13.999801768104
scalar RSUExampleScenario.node[66].veinsmobility 	totalDistance 	928.06021202205
scalar RSUExampleScenario.node[66].veinsmobility 	totalCO2Emission 	328.80489846779
scalar RSUExampleScenario.node[67].veinsmobility 	startTime 	161.5
scalar RSUExampleScenario.node[67].veinsmobility 	totalTime 	188.5
scalar RSUExampleScenario.node[67].veinsmobility 	stopTime 	350
scalar RSUExampleScenario.node[67].veinsmobility 	minSpeed 	0
scalar RSUExampleScenario.node[67].veinsmobility 	maxSpeed 	13.999240251151
scalar RSUExampleScenario.node[67].veinsmobility 	totalDistance 	912.79955007682
scalar RSUExampleScenario.node[67].veinsmobility 	totalCO2Emission 	323.78906755528
scalar RSUExampleScenario.node[68].veinsmobility 	startTime 	163.9
scalar RSUExampleScenario.node[68].veinsmobility 	totalTime 	186.1
scalar RSUExampleScenario.node[68].veinsmobility 	stopTime 	350
scalar RSUExampleScenario.node[68].veinsmobility 	minSpeed 	0
scalar RSUExampleScenario.node[68].veinsmobility 	maxSpeed 	13.999589019895
scalar RSUExampleScenario.node[68].veinsmobility 	totalDistance 	894.12350926554
scalar RSUExampleScenario.node[68].veinsmobility 	totalCO2Emission 	321.39728107428
scalar RSUExampleScenario.node[69].veinsmobility 	startTime 	166.3
scalar RSUExampleScenario.node[69].veinsmobility 	totalTime 	183.7
scalar RSUExampleScenario.node[69].veinsmobility 	stopTime 	350
scalar RSUExampleScenario.node[69].veinsmobility 	minSpeed 	0
scalar RSUExampleScenario.node[69].veinsmobility 	maxSpeed 	13.999901226852
scalar RSUExampleScenario.node[69].veinsmobility 	totalDistance 	858.62138213611
scalar RSUExampleScenario.node[69].veinsmobility 	totalCO2Emission 	316.79595883125
scalar RSUExampleScenario.node[7].veinsmobility 	startTime 	16.9
scalar RSUExampleScenario.node[7].veinsmobility 	totalTime 	333.1
scalar RSUExampleScenario.node[7].veinsmobility 	stopTime 	350
scalar RSUExampleScenario.node[7].veinsmobility 	minSpeed 	0
scalar RSUExampleScenario.node[7].veinsmobility 	maxSpeed 	13.999984290039
scalar RSUExampleScenario.node[7].veinsmobility 	totalDistance 	2889.418188285
scalar RSUExampleScenario.node[7].veinsmobility 	totalCO2Emission 	678.1500586363
scalar RSUExampleScenario.node[70].veinsmobility 	startTime 	168.8
scalar RSUExampleScenario.node[70].veinsmobility 	totalTime 	181.2
scalar RSUExampleScenario.node[70].veinsmobility 	stopTime 	350
scalar RSUExampleScenario.node[70].veinsmobility 	minSpeed 	0
scalar RSUExampleScenario.node[70].veinsmobility 	maxSpeed 	13.999151130221
scalar RSUExampleScenario.node[70].veinsmobility 	totalDistance 	826.85512122916
scalar RSUExampleScenario.node[70].veinsmobility 	totalCO2Emission 	310.20917329175
scalar RSUExampleScenario.node[71].veinsmobility 	startTime 	171.2
scalar RSUExampleScenario.node[71].veinsmobility 	totalTime 	178.8
scalar RSUExampleScenario.node[71].veinsmobility 	stopTime 	350
scalar RSUExampleScenario.node[71].veinsmobility 	minSpeed 	0
scalar RSUExampleScenario.node[71].veinsmobility 	maxSpeed 	13.999789280714
scalar RSUExampleScenario.node[71].veinsmobility 	totalDistance 	793.86769825744
scalar RSUExampleScenario.node[71].veinsmobility 	totalCO2Emission 	306.51092438828
scalar RSUExampleScenario.node[72].veinsmobility 	startTime 	173.6
scalar RSUExampleScenario.node[72].veinsmobility 	totalTime 	176.4
scalar RSUExampleScenario.node[72].veinsmobility 	stopTime 	350
scalar RSUExampleScenario.node[72].veinsmobility 	minSpeed 	0
scalar RSUExampleScenario.node[72].veinsmobility 	maxSpeed 	13.999618574341
scalar RSUExampleScenario.node[72].veinsmobility 	totalDistance 	758.8766622159
scalar RSUExampleScenario.node[72].veinsmobility 	totalCO2Emission 	298.15359489278
scalar RSUExampleScenario.node[73].veinsmobility 	startTime 	176
scalar RSUExampleScenario.node[73].veinsmobility 	totalTime 	174
scalar RSUExampleScenario.node[73].veinsmobility 	stopTime 	350
scalar RSUExampleScenario.node[73].veinsmobility 	minSpeed 	0
scalar RSUExampleScenario.node[73].veinsmobility 	maxSpeed 	13.99996412799
scalar RSUExampleScenario.node[73].veinsmobility 	totalDistance 	726.72840413114
scalar RSUExampleScenario.node[73].veinsmobility 	totalCO2Emission 	294.14400041906
scalar RSUExampleScenario.node[74].veinsmobility 	startTime 	178.4
scalar RSUExampleScenario.node[74].veinsmobility 	totalTime 	171.6
scalar RSUExampleScenario.node[74].veinsmobility 	stopTime 	350
scalar RSUExampleScenario.node[74].veinsmobility 	minSpeed 	0
scalar RSUExampleScenario.node[74].veinsmobility 	maxSpeed 	13.999563041066
scalar RSUExampleScenario.node[74].veinsmobility 	totalDistance 	689.6947646436
scalar RSUExampleScenario.node[74].veinsmobility 	totalCO2Emission 	287.3638789522
scalar RSUExampleScenario.node[75].veinsmobility 	startTime 	180.8
scalar RSUExampleScenario.node[75].veinsmobility 	totalTime 	169.2
scalar RSUExampleScenario.node[75].veinsmobility 	stopTime 	350
scalar RSUExampleScenario.node[75].veinsmobility 	minSpeed 	0
scalar RSUExampleScenario.node[75].veinsmobility 	maxSpeed 	13.999945369468
scalar RSUExampleScenario.node[75].veinsmobility 	totalDistance 	657.94168776486
scalar RSUExampleScenario.node[75].veinsmobility 	totalCO2Emission 	281.48272083426
scalar RSUExampleScenario.node[76].veinsmobility 	startTime 	183.2
scalar RSUExampleScenario.node[76].veinsmobility 	totalTime 	166.8
scalar RSUExampleScenario.node[76].veinsmobility 	stopTime 	350
scalar RSUExampleScenario.node[76].veinsmobility 	minSpeed 	0
scalar RSUExampleScenario.node[76].veinsmobility 	maxSpeed 	13.999594459718
scalar RSUExampleScenario.node[76].veinsmobility 	totalDistance 	624.84892103081
scalar RSUExampleScenario.node[76].veinsmobility 	totalCO2Emission 	277.71034522987
scalar RSUExampleScenario.node[77].veinsmobility 	startTime 	185.6
scalar RSUExampleScenario.node[77].veinsmobility 	totalTime 	164.4
scalar RSUExampleScenario.node[77].veinsmobility 	stopTime 	350
scalar RSUExampleScenario.node[77].veinsmobility 	minSpeed 	0
scalar RSUExampleScenario.node[77].veinsmobility 	maxSpeed 	13.999833437041
scalar RSUExampleScenario.node[77].veinsmobility 	totalDistance 	590.99395379974
scalar RSUExampleScenario.node[77].veinsmobility 	totalCO2Emission 	271.11184712578
scalar RSUExampleScenario.node[78].veinsmobility 	startTime 	188
scalar RSUExampleScenario.node[78].veinsmobility 	totalTime 	162
scalar RSUExampleScenario.node[78].veinsmobility 	stopTime 	350
scalar RSUExampleScenario.node[78].veinsmobility 	minSpeed 	0
scalar RSUExampleScenario.node[78].veinsmobility 	maxSpeed 	13.998353440696
scalar RSUExampleScenario.node[78].veinsmobility 	totalDistance 	557.59434421603
scalar RSUExampleScenario.node[78].veinsmobility 	totalCO2Emission 	264.30421954389
scalar RSUExampleScenario.node[79].veinsmobility 	startTime 	190.4
scalar RSUExampleScenario.node[79].veinsmobility 	totalTime 	159.6
scalar RSUExampleScenario.node[79].veinsmobility 	stopTime 	350
scalar RSUExampleScenario.node[79].veinsmobility 	minSpeed 	0
scalar RSUExampleScenario.node[79].veinsmobility 	maxSpeed 	13.999997472321
scalar RSUExampleScenario.node[79].veinsmobility 	totalDistance 	525.40881974893
scalar RSUExampleScenario.node[79].veinsmobility 	totalCO2Emission 	261.06065196153
scalar RSUExampleScenario.node[8].veinsmobility 	startTime 	19.3
scalar RSUExampleScenario.node[8].veinsmobility 	totalTime 	330.7
scalar RSUExampleScenario.node[8].veinsmobility 	stopTime 	350
scalar RSUExampleScenario.node[8].veinsmobility 	minSpeed 	0
scalar RSUExampleScenario.node[8].veinsmobility 	maxSpeed 	13.999982458584
scalar RSUExampleScenario.node[8].veinsmobility 	totalDistance 	2858.0221322813
scalar RSUExampleScenario.node[8].veinsmobility 	totalCO2Emission 	674.99674007197
scalar RSUExampleScenario.node[80].veinsmobility 	startTime 	192.9
scalar RSUExampleScenario.node[80].veinsmobility 	totalTime 	157.1
scalar RSUExampleScenario.node[80].veinsmobility 	stopTime 	350
scalar RSUExampleScenario.node[80].veinsmobility 	minSpeed 	0
scalar RSUExampleScenario.node[80].veinsmobility 	maxSpeed 	13.999839628055
scalar RSUExampleScenario.node[80].veinsmobility 	totalDistance 	491.77480074479
scalar RSUExampleScenario.node[80].veinsmobility 	totalCO2Emission 	253.94398355816
scalar RSUExampleScenario.node[81].veinsmobility 	startTime 	195.3
scalar RSUExampleScenario.node[81].veinsmobility 	totalTime 	154.7
scalar RSUExampleScenario.node[81].veinsmobility 	stopTime 	350
scalar RSUExampleScenario.node[81].veinsmobility 	minSpeed 	0
scalar RSUExampleScenario.node[81].veinsmobility 	maxSpeed 	13.999483588911
scalar RSUExampleScenario.node[81].veinsmobility 	totalDistance 	457.57293470695
scalar RSUExampleScenario.node[81].veinsmobility 	totalCO2Emission 	247.09309712591
scalar RSUExampleScenario.node[82].veinsmobility 	startTime 	197.7
scalar RSUExampleScenario.node[82].veinsmobility 	totalTime 	152.3
scalar RSUExampleScenario.node[82].veinsmobility 	stopTime 	350
scalar RSUExampleScenario.node[82].veinsmobility 	minSpeed 	0
scalar RSUExampleScenario.node[82].veinsmobility 	maxSpeed 	13.999943572518
scalar RSUExampleScenario.node[82].veinsmobility 	totalDistance 	421.88519797834
scalar RSUExampleScenario.node[82].veinsmobility 	totalCO2Emission 	242.03549438261
scalar RSUExampleScenario.node[83].veinsmobility 	startTime 	200.1
scalar RSUExampleScenario.node[83].veinsmobility 	totalTime 	149.9
scalar RSUExampleScenario.node[83].veinsmobility 	stopTime 	350
scalar RSUExampleScenario.node[83].veinsmobility 	minSpeed 	0
scalar RSUExampleScenario.node[83].veinsmobility 	maxSpeed 	13.998302806991
scalar RSUExampleScenario.node[83].veinsmobility 	totalDistance 	389.29775485824
scalar RSUExampleScenario.node[83].veinsmobility 	totalCO2Emission 	236.87640219831
scalar RSUExampleScenario.node[84].veinsmobility 	startTime 	202.5
scalar RSUExampleScenario.node[84].veinsmobility 	totalTime 	147.5
scalar RSUExampleScenario.node[84].veinsmobility 	stopTime 	350
scalar RSUExampleScenario.node[84].veinsmobility 	minSpeed 	0
scalar RSUExampleScenario.node[84].veinsmobility 	maxSpeed 	13.998328429959
scalar RSUExampleScenario.node[84].veinsmobility 	totalDistance 	355.2213787356
scalar RSUExampleScenario.node[84].veinsmobility 	totalCO2Emission 	231.33894348306
scalar RSUExampleScenario.node[85].veinsmobility 	startTime 	204.9
scalar RSUExampleScenario.node[85].veinsmobility 	totalTime 	145.1
scalar RSUExampleScenario.node[85].veinsmobility 	stopTime 	350
scalar RSUExampleScenario.node[85].veinsmobility 	minSpeed 	0
scalar RSUExampleScenario.node[85].veinsmobility 	maxSpeed 	13.989265098856
scalar RSUExampleScenario.node[85].veinsmobility 	totalDistance 	323.0315393221
scalar RSUExampleScenario.node[85].veinsmobility 	totalCO2Emission 	225.6728571292
scalar RSUExampleScenario.node[86].veinsmobility 	startTime 	207.3
scalar RSUExampleScenario.node[86].veinsmobility 	totalTime 	142.7
scalar RSUExampleScenario.node[86].veinsmobility 	stopTime 	350
scalar RSUExampleScenario.node[86].veinsmobility 	minSpeed 	0
scalar RSUExampleScenario.node[86].veinsmobility 	maxSpeed 	13.854896615341
scalar RSUExampleScenario.node[86].veinsmobility 	totalDistance 	286.82163323158
scalar RSUExampleScenario.node[86].veinsmobility 	totalCO2Emission 	218.10404518689
scalar RSUExampleScenario.node[87].veinsmobility 	startTime 	209.7
scalar RSUExampleScenario.node[87].veinsmobility 	totalTime 	140.3
scalar RSUExampleScenario.node[87].veinsmobility 	stopTime 	350
scalar RSUExampleScenario.node[87].veinsmobility 	minSpeed 	0
scalar RSUExampleScenario.node[87].veinsmobility 	maxSpeed 	13.821142711057
scalar RSUExampleScenario.node[87].veinsmobility 	totalDistance 	249.66309234681
scalar RSUExampleScenario.node[87].veinsmobility 	totalCO2Emission 	201.81730301355
scalar RSUExampleScenario.node[88].veinsmobility 	startTime 	212.1
scalar RSUExampleScenario.node[88].veinsmobility 	totalTime 	137.9
scalar RSUExampleScenario.node[88].veinsmobility 	stopTime 	350
scalar RSUExampleScenario.node[88].veinsmobility 	minSpeed 	0
scalar RSUExampleScenario.node[88].veinsmobility 	maxSpeed 	13.885890774829
scalar RSUExampleScenario.node[88].veinsmobility 	totalDistance 	226.15034940193
scalar RSUExampleScenario.node[88].veinsmobility 	totalCO2Emission 	190.1007784911
scalar RSUExampleScenario.node[89].veinsmobility 	startTime 	214.5
scalar RSUExampleScenario.node[89].veinsmobility 	totalTime 	135.5
scalar RSUExampleScenario.node[89].veinsmobility 	stopTime 	350
scalar RSUExampleScenario.node[89].veinsmobility 	minSpeed 	0
scalar RSUExampleScenario.node[89].veinsmobility 	maxSpeed 	13.850362943648
scalar RSUExampleScenario.node[89].veinsmobility 	totalDistance 	215.38481474994
scalar RSUExampleScenario.node[89].veinsmobility 	totalCO2Emission 	186.08795375341
scalar RSUExampleScenario.node[9].veinsmobility 	startTime 	21.7
scalar RSUExampleScenario.node[9].veinsmobility 	totalTime 	328.3
scalar RSUExampleScenario.node[9].veinsmobility 	stopTime 	350
scalar RSUExampleScenario.node[9].veinsmobility 	minSpeed 	0
scalar RSUExampleScenario.node[9].veinsmobility 	maxSpeed 	13.999892243647
scalar RSUExampleScenario.node[9].veinsmobility 	totalDistance 	2829.9600467357
scalar RSUExampleScenario.node[9].veinsmobility 	totalCO2Emission 	670.68315280928
scalar RSUExampleScenario.node[90].veinsmobility 	startTime 	217
scalar RSUExampleScenario.node[90].veinsmobility 	totalTime 	133
scalar RSUExampleScenario.node[90].veinsmobility 	stopTime 	350
scalar RSUExampleScenario.node[90].veinsmobility 	minSpeed 	0
scalar RSUExampleScenario.node[90].veinsmobility 	maxSpeed 	13.882861723071
scalar RSUExampleScenario.node[90].veinsmobility 	totalDistance 	202.31614051029
scalar RSUExampleScenario.node[90].veinsmobility 	totalCO2Emission 	183.34202735519
scalar RSUExampleScenario.node[91].veinsmobility 	startTime 	219.4
scalar RSUExampleScenario.node[91].veinsmobility 	totalTime 	130.6
scalar RSUExampleScenario.node[91].veinsmobility 	stopTime 	350
scalar RSUExampleScenario.node[91].veinsmobility 	minSpeed 	0
scalar RSUExampleScenario.node[91].veinsmobility 	maxSpeed 	13.862940078042
scalar RSUExampleScenario.node[91].veinsmobility 	totalDistance 	185.54325339514
scalar RSUExampleScenario.node[91].veinsmobility 	totalCO2Emission 	180.11815739611
scalar RSUExampleScenario.node[92].veinsmobility 	startTime 	221.8
scalar RSUExampleScenario.node[92].veinsmobility 	totalTime 	128.2
scalar RSUExampleScenario.node[92].veinsmobility 	stopTime 	350
scalar RSUExampleScenario.node[92].veinsmobility 	minSpeed 	0
scalar RSUExampleScenario.node[92].veinsmobility 	maxSpeed 	13.782986063885
scalar RSUExampleScenario.node[92].veinsmobility 	totalDistance 	150.75433493062
scalar RSUExampleScenario.node[92].veinsmobility 	totalCO2Emission 	166.61035312009
scalar RSUExampleScenario.node[93].veinsmobility 	startTime 	224.2
scalar RSUExampleScenario.node[93].veinsmobility 	totalTime 	125.8
scalar RSUExampleScenario.node[93].veinsmobility 	stopTime 	350
scalar RSUExampleScenario.node[93].veinsmobility 	minSpeed 	0
scalar RSUExampleScenario.node[93].veinsmobility 	maxSpeed 	13.820187906939
scalar RSUExampleScenario.node[93].veinsmobility 	totalDistance 	123.58349392005
scalar RSUExampleScenario.node[93].veinsmobility 	totalCO2Emission 	154.45236014494
scalar RSUExampleScenario.node[94].veinsmobility 	startTime 	226.6
scalar RSUExampleScenario.node[94].veinsmobility 	totalTime 	123.4
scalar RSUExampleScenario.node[94].veinsmobility 	stopTime 	350
scalar RSUExampleScenario.node[94].veinsmobility 	minSpeed 	0
scalar RSUExampleScenario.node[94].veinsmobility 	maxSpeed 	13.811391844521
scalar RSUExampleScenario.node[94].veinsmobility 	totalDistance 	112.25888904512
scalar RSUExampleScenario.node[94].veinsmobility 	totalCO2Emission 	148.82093261151
scalar RSUExampleScenario.node[95].veinsmobility 	startTime 	229
scalar RSUExampleScenario.node[95].veinsmobility 	totalTime 	121
scalar RSUExampleScenario.node[95].veinsmobility 	stopTime 	350
scalar RSUExampleScenario.node[95].veinsmobility 	minSpeed 	0
scalar RSUExampleScenario.node[95].veinsmobility 	maxSpeed 	13.667421625315
scalar RSUExampleScenario.node[95].veinsmobility 	totalDistance 	99.363862741201
scalar RSUExampleScenario.node[95].veinsmobility 	totalCO2Emission 	144.56472353567
scalar RSUExampleScenario.node[96].veinsmobility 	startTime 	231.4
scalar RSUExampleScenario.node[96].veinsmobility 	totalTime 	118.6
scalar RSUExampleScenario.node[96].veinsmobility 	stopTime 	350
scalar RSUExampleScenario.node[96].veinsmobility 	minSpeed 	0
scalar RSUExampleScenario.node[96].veinsmobility 	maxSpeed 	13.73636188565
scalar RSUExampleScenario.node[96].veinsmobility 	totalDistance 	83.134768467411
scalar RSUExampleScenario.node[96].veinsmobility 	totalCO2Emission 	142.38408617416
scalar RSUExampleScenario.node[97].veinsmobility 	startTime 	233.8
scalar RSUExampleScenario.node[97].veinsmobility 	totalTime 	116.2
scalar RSUExampleScenario.node[97].veinsmobility 	stopTime 	350
scalar RSUExampleScenario.node[97].veinsmobility 	minSpeed 	0
scalar RSUExampleScenario.node[97].veinsmobility 	maxSpeed 	12.583834482826
scalar RSUExampleScenario.node[97].veinsmobility 	totalDistance 	57.110690034856
scalar RSUExampleScenario.node[97].veinsmobility 	totalCO2Emission 	135.41528934401
scalar RSUExampleScenario.node[98].veinsmobility 	startTime 	236.2
scalar RSUExampleScenario.node[98].veinsmobility 	totalTime 	113.8
scalar RSUExampleScenario.node[98].veinsmobility 	stopTime 	350
scalar RSUExampleScenario.node[98].veinsmobility 	minSpeed 	0
scalar RSUExampleScenario.node[98].veinsmobility 	maxSpeed 	7.576630914197
scalar RSUExampleScenario.node[98].veinsmobility 	totalDistance 	21.188816212392
scalar RSUExampleScenario.node[98].veinsmobility 	totalCO2Emission 	119.00018439616
scalar RSUExampleScenario.node[99].veinsmobility 	startTime 	238.6
scalar RSUExampleScenario.node[99].veinsmobility 	totalTime 	111.4
scalar RSUExampleScenario.node[99].veinsmobility 	stopTime 	350
scalar RSUExampleScenario.node[99].veinsmobility 	minSpeed 	0
scalar RSUExampleScenario.node[99].veinsmobility 	maxSpeed 	3.0983673359337
scalar RSUExampleScenario.node[99].veinsmobility 	totalDistance 	3.2801840013768
scalar RSUExampleScenario.node[99].veinsmobility 	totalCO2Emission 	109.81258919581
