version 2
run statisticRVV-42-20150325-01:30:44-2608
attr c 10
attr configname statisticRVV
attr datetime 20150325-01:30:44
attr experiment statisticRVV
attr inifile omnetpp.ini
attr iterationvars "$sc=\"erlangen-low.launchd.xml\", $p=1/10, $c=10"
attr iterationvars2 "$sc=\"erlangen-low.launchd.xml\", $p=1/10, $c=10, $repetition=2"
attr measurement "$sc=\"erlangen-low.launchd.xml\", $p=1/10, $c=10"
attr network RSUExampleScenario
attr p 1/10
attr processid 2608
attr repetition 2
attr replication #2
attr resultdir results
attr runnumber 42
attr sc "\"erlangen-low.launchd.xml\""
attr seedset 42

scalar . 	c 	10
scalar RSUExampleScenario.node[0].veinsmobility 	startTime 	0.1
scalar RSUExampleScenario.node[0].veinsmobility 	totalTime 	226.9
scalar RSUExampleScenario.node[0].veinsmobility 	stopTime 	227.1
scalar RSUExampleScenario.node[0].veinsmobility 	minSpeed 	0.25513097851397
scalar RSUExampleScenario.node[0].veinsmobility 	maxSpeed 	18.999970485326
scalar RSUExampleScenario.node[0].veinsmobility 	totalDistance 	3409.3009262855
scalar RSUExampleScenario.node[0].veinsmobility 	totalCO2Emission 	704.14623820246
scalar RSUExampleScenario.node[1].veinsmobility 	startTime 	6.1
scalar RSUExampleScenario.node[1].veinsmobility 	totalTime 	226.8
scalar RSUExampleScenario.node[1].veinsmobility 	stopTime 	233
scalar RSUExampleScenario.node[1].veinsmobility 	minSpeed 	0.25115600199671
scalar RSUExampleScenario.node[1].veinsmobility 	maxSpeed 	18.999835150209
scalar RSUExampleScenario.node[1].veinsmobility 	totalDistance 	3409.4076839422
scalar RSUExampleScenario.node[1].veinsmobility 	totalCO2Emission 	706.43035876309
scalar RSUExampleScenario.node[2].veinsmobility 	startTime 	12.1
scalar RSUExampleScenario.node[2].veinsmobility 	totalTime 	227
scalar RSUExampleScenario.node[2].veinsmobility 	stopTime 	239.2
scalar RSUExampleScenario.node[2].veinsmobility 	minSpeed 	0.25072781780898
scalar RSUExampleScenario.node[2].veinsmobility 	maxSpeed 	18.999877355976
scalar RSUExampleScenario.node[2].veinsmobility 	totalDistance 	3409.2522779853
scalar RSUExampleScenario.node[2].veinsmobility 	totalCO2Emission 	710.63613230258
scalar RSUExampleScenario.node[3].veinsmobility 	startTime 	18.1
scalar RSUExampleScenario.node[3].veinsmobility 	totalTime 	226.8
scalar RSUExampleScenario.node[3].veinsmobility 	stopTime 	245
scalar RSUExampleScenario.node[3].veinsmobility 	minSpeed 	0.25852484417148
scalar RSUExampleScenario.node[3].veinsmobility 	maxSpeed 	18.999998487327
scalar RSUExampleScenario.node[3].veinsmobility 	totalDistance 	3409.2852476624
scalar RSUExampleScenario.node[3].veinsmobility 	totalCO2Emission 	710.67730249488
scalar RSUExampleScenario.node[4].veinsmobility 	startTime 	24.1
scalar RSUExampleScenario.node[4].veinsmobility 	totalTime 	227
scalar RSUExampleScenario.node[4].veinsmobility 	stopTime 	251.2
scalar RSUExampleScenario.node[4].veinsmobility 	minSpeed 	0.25309238977195
scalar RSUExampleScenario.node[4].veinsmobility 	maxSpeed 	18.999879175718
scalar RSUExampleScenario.node[4].veinsmobility 	totalDistance 	3409.7498593079
scalar RSUExampleScenario.node[4].veinsmobility 	totalCO2Emission 	707.97379123755
scalar RSUExampleScenario.node[5].veinsmobility 	startTime 	30.1
scalar RSUExampleScenario.node[5].veinsmobility 	totalTime 	227.1
scalar RSUExampleScenario.node[5].veinsmobility 	stopTime 	257.3
scalar RSUExampleScenario.node[5].veinsmobility 	minSpeed 	0.25274074475816
scalar RSUExampleScenario.node[5].veinsmobility 	maxSpeed 	18.999814315666
scalar RSUExampleScenario.node[5].veinsmobility 	totalDistance 	3409.738034535
scalar RSUExampleScenario.node[5].veinsmobility 	totalCO2Emission 	708.28766988757
scalar RSUExampleScenario.node[6].veinsmobility 	startTime 	36.1
scalar RSUExampleScenario.node[6].veinsmobility 	totalTime 	226.9
scalar RSUExampleScenario.node[6].veinsmobility 	stopTime 	263.1
scalar RSUExampleScenario.node[6].veinsmobility 	minSpeed 	0.24836231114948
scalar RSUExampleScenario.node[6].veinsmobility 	maxSpeed 	18.99994779923
scalar RSUExampleScenario.node[6].veinsmobility 	totalDistance 	3409.1672099077
scalar RSUExampleScenario.node[6].veinsmobility 	totalCO2Emission 	701.18977838186
scalar RSUExampleScenario.node[7].veinsmobility 	startTime 	42.1
scalar RSUExampleScenario.node[7].veinsmobility 	totalTime 	226.7
scalar RSUExampleScenario.node[7].veinsmobility 	stopTime 	268.9
scalar RSUExampleScenario.node[7].veinsmobility 	minSpeed 	0.25137401415315
scalar RSUExampleScenario.node[7].veinsmobility 	maxSpeed 	18.999855427549
scalar RSUExampleScenario.node[7].veinsmobility 	totalDistance 	3409.3121626197
scalar RSUExampleScenario.node[7].veinsmobility 	totalCO2Emission 	707.44236031038
scalar RSUExampleScenario.node[8].veinsmobility 	startTime 	48.1
scalar RSUExampleScenario.node[8].veinsmobility 	totalTime 	227.1
scalar RSUExampleScenario.node[8].veinsmobility 	stopTime 	275.3
scalar RSUExampleScenario.node[8].veinsmobility 	minSpeed 	0.25883765699668
scalar RSUExampleScenario.node[8].veinsmobility 	maxSpeed 	18.999829097309
scalar RSUExampleScenario.node[8].veinsmobility 	totalDistance 	3409.1589136068
scalar RSUExampleScenario.node[8].veinsmobility 	totalCO2Emission 	704.83982814671
scalar RSUExampleScenario.node[9].veinsmobility 	startTime 	54.1
scalar RSUExampleScenario.node[9].veinsmobility 	totalTime 	226.9
scalar RSUExampleScenario.node[9].veinsmobility 	stopTime 	281.1
scalar RSUExampleScenario.node[9].veinsmobility 	minSpeed 	0.25247721965169
scalar RSUExampleScenario.node[9].veinsmobility 	maxSpeed 	18.999897363719
scalar RSUExampleScenario.node[9].veinsmobility 	totalDistance 	3409.0799069603
scalar RSUExampleScenario.node[9].veinsmobility 	totalCO2Emission 	709.14758145129
scalar RSUExampleScenario.node[10].veinsmobility 	startTime 	60.1
scalar RSUExampleScenario.node[10].veinsmobility 	totalTime 	227.2
scalar RSUExampleScenario.node[10].veinsmobility 	stopTime 	287.4
scalar RSUExampleScenario.node[10].veinsmobility 	minSpeed 	0.25605933139473
scalar RSUExampleScenario.node[10].veinsmobility 	maxSpeed 	18.999466811004
scalar RSUExampleScenario.node[10].veinsmobility 	totalDistance 	3409.2575589645
scalar RSUExampleScenario.node[10].veinsmobility 	totalCO2Emission 	708.68341383192
scalar RSUExampleScenario.node[11].veinsmobility 	startTime 	66.1
scalar RSUExampleScenario.node[11].veinsmobility 	totalTime 	226.7
scalar RSUExampleScenario.node[11].veinsmobility 	stopTime 	292.9
scalar RSUExampleScenario.node[11].veinsmobility 	minSpeed 	0.24956563696638
scalar RSUExampleScenario.node[11].veinsmobility 	maxSpeed 	18.998631613182
scalar RSUExampleScenario.node[11].veinsmobility 	totalDistance 	3409.4580118379
scalar RSUExampleScenario.node[11].veinsmobility 	totalCO2Emission 	703.89198834384
scalar RSUExampleScenario.node[12].veinsmobility 	startTime 	72.1
scalar RSUExampleScenario.node[12].veinsmobility 	totalTime 	226.6
scalar RSUExampleScenario.node[12].veinsmobility 	stopTime 	298.8
scalar RSUExampleScenario.node[12].veinsmobility 	minSpeed 	0.2547448834891
scalar RSUExampleScenario.node[12].veinsmobility 	maxSpeed 	18.999975924392
scalar RSUExampleScenario.node[12].veinsmobility 	totalDistance 	3409.2833199985
scalar RSUExampleScenario.node[12].veinsmobility 	totalCO2Emission 	708.04986445674
scalar RSUExampleScenario.node[13].veinsmobility 	startTime 	78.1
scalar RSUExampleScenario.node[13].veinsmobility 	totalTime 	227
scalar RSUExampleScenario.node[13].veinsmobility 	stopTime 	305.2
scalar RSUExampleScenario.node[13].veinsmobility 	minSpeed 	0.25924802213791
scalar RSUExampleScenario.node[13].veinsmobility 	maxSpeed 	18.99990680845
scalar RSUExampleScenario.node[13].veinsmobility 	totalDistance 	3409.3623441165
scalar RSUExampleScenario.node[13].veinsmobility 	totalCO2Emission 	702.8746241272
scalar RSUExampleScenario.node[14].veinsmobility 	startTime 	84.1
scalar RSUExampleScenario.node[14].veinsmobility 	totalTime 	226.7
scalar RSUExampleScenario.node[14].veinsmobility 	stopTime 	310.9
scalar RSUExampleScenario.node[14].veinsmobility 	minSpeed 	0.24916263928241
scalar RSUExampleScenario.node[14].veinsmobility 	maxSpeed 	18.999946661638
scalar RSUExampleScenario.node[14].veinsmobility 	totalDistance 	3409.7287691462
scalar RSUExampleScenario.node[14].veinsmobility 	totalCO2Emission 	707.79196538477
scalar RSUExampleScenario.node[15].veinsmobility 	startTime 	90.1
scalar RSUExampleScenario.node[15].veinsmobility 	totalTime 	226.9
scalar RSUExampleScenario.node[15].veinsmobility 	stopTime 	317.1
scalar RSUExampleScenario.node[15].veinsmobility 	minSpeed 	0.25637764017447
scalar RSUExampleScenario.node[15].veinsmobility 	maxSpeed 	18.999927956115
scalar RSUExampleScenario.node[15].veinsmobility 	totalDistance 	3409.5405600646
scalar RSUExampleScenario.node[15].veinsmobility 	totalCO2Emission 	711.69858265663
scalar RSUExampleScenario.node[16].veinsmobility 	startTime 	96.1
scalar RSUExampleScenario.node[16].veinsmobility 	totalTime 	226.9
scalar RSUExampleScenario.node[16].veinsmobility 	stopTime 	323.1
scalar RSUExampleScenario.node[16].veinsmobility 	minSpeed 	0.2515209403669
scalar RSUExampleScenario.node[16].veinsmobility 	maxSpeed 	18.999867101123
scalar RSUExampleScenario.node[16].veinsmobility 	totalDistance 	3409.1495927621
scalar RSUExampleScenario.node[16].veinsmobility 	totalCO2Emission 	705.50460509459
scalar RSUExampleScenario.node[17].veinsmobility 	startTime 	102.1
scalar RSUExampleScenario.node[17].veinsmobility 	totalTime 	227
scalar RSUExampleScenario.node[17].veinsmobility 	stopTime 	329.2
scalar RSUExampleScenario.node[17].veinsmobility 	minSpeed 	0.25444293510239
scalar RSUExampleScenario.node[17].veinsmobility 	maxSpeed 	18.999962758757
scalar RSUExampleScenario.node[17].veinsmobility 	totalDistance 	3409.1715465246
scalar RSUExampleScenario.node[17].veinsmobility 	totalCO2Emission 	703.79710369793
scalar RSUExampleScenario.node[18].veinsmobility 	startTime 	108.1
scalar RSUExampleScenario.node[18].veinsmobility 	totalTime 	226.8
scalar RSUExampleScenario.node[18].veinsmobility 	stopTime 	335
scalar RSUExampleScenario.node[18].veinsmobility 	minSpeed 	0.25307324849884
scalar RSUExampleScenario.node[18].veinsmobility 	maxSpeed 	18.999979493138
scalar RSUExampleScenario.node[18].veinsmobility 	totalDistance 	3409.4320830296
scalar RSUExampleScenario.node[18].veinsmobility 	totalCO2Emission 	701.34709722871
scalar RSUExampleScenario.node[19].veinsmobility 	startTime 	114.1
scalar RSUExampleScenario.node[19].veinsmobility 	totalTime 	227.1
scalar RSUExampleScenario.node[19].veinsmobility 	stopTime 	341.3
scalar RSUExampleScenario.node[19].veinsmobility 	minSpeed 	0.25654608772369
scalar RSUExampleScenario.node[19].veinsmobility 	maxSpeed 	18.999544394233
scalar RSUExampleScenario.node[19].veinsmobility 	totalDistance 	3409.1683626702
scalar RSUExampleScenario.node[19].veinsmobility 	totalCO2Emission 	707.70634955495
scalar RSUExampleScenario.node[20].veinsmobility 	startTime 	120.1
scalar RSUExampleScenario.node[20].veinsmobility 	totalTime 	226.9
scalar RSUExampleScenario.node[20].veinsmobility 	stopTime 	347.1
scalar RSUExampleScenario.node[20].veinsmobility 	minSpeed 	0.25344913069438
scalar RSUExampleScenario.node[20].veinsmobility 	maxSpeed 	18.999960080585
scalar RSUExampleScenario.node[20].veinsmobility 	totalDistance 	3409.4697355141
scalar RSUExampleScenario.node[20].veinsmobility 	totalCO2Emission 	707.32482576672
scalar RSUExampleScenario.node[21].veinsmobility 	startTime 	126.1
scalar RSUExampleScenario.node[21].veinsmobility 	totalTime 	227
scalar RSUExampleScenario.node[21].veinsmobility 	stopTime 	353.2
scalar RSUExampleScenario.node[21].veinsmobility 	minSpeed 	0.25587563071284
scalar RSUExampleScenario.node[21].veinsmobility 	maxSpeed 	18.999400708361
scalar RSUExampleScenario.node[21].veinsmobility 	totalDistance 	3409.38820105
scalar RSUExampleScenario.node[21].veinsmobility 	totalCO2Emission 	707.54144352653
scalar RSUExampleScenario.node[22].veinsmobility 	startTime 	132.1
scalar RSUExampleScenario.node[22].veinsmobility 	totalTime 	226.8
scalar RSUExampleScenario.node[22].veinsmobility 	stopTime 	359
scalar RSUExampleScenario.node[22].veinsmobility 	minSpeed 	0.25513402206567
scalar RSUExampleScenario.node[22].veinsmobility 	maxSpeed 	18.999748150005
scalar RSUExampleScenario.node[22].veinsmobility 	totalDistance 	3409.4629990048
scalar RSUExampleScenario.node[22].veinsmobility 	totalCO2Emission 	708.26001994191
scalar RSUExampleScenario.node[23].veinsmobility 	startTime 	138.1
scalar RSUExampleScenario.node[23].veinsmobility 	totalTime 	227
scalar RSUExampleScenario.node[23].veinsmobility 	stopTime 	365.2
scalar RSUExampleScenario.node[23].veinsmobility 	minSpeed 	0.25976654776069
scalar RSUExampleScenario.node[23].veinsmobility 	maxSpeed 	18.999815182996
scalar RSUExampleScenario.node[23].veinsmobility 	totalDistance 	3409.4033254973
scalar RSUExampleScenario.node[23].veinsmobility 	totalCO2Emission 	708.51988099724
scalar RSUExampleScenario.node[24].veinsmobility 	startTime 	144.1
scalar RSUExampleScenario.node[24].veinsmobility 	totalTime 	226.7
scalar RSUExampleScenario.node[24].veinsmobility 	stopTime 	370.9
scalar RSUExampleScenario.node[24].veinsmobility 	minSpeed 	0.25789922659658
scalar RSUExampleScenario.node[24].veinsmobility 	maxSpeed 	18.99983661639
scalar RSUExampleScenario.node[24].veinsmobility 	totalDistance 	3409.3484040379
scalar RSUExampleScenario.node[24].veinsmobility 	totalCO2Emission 	704.68962012876
scalar RSUExampleScenario.node[25].veinsmobility 	startTime 	150.1
scalar RSUExampleScenario.node[25].veinsmobility 	totalTime 	226.9
scalar RSUExampleScenario.node[25].veinsmobility 	stopTime 	377.1
scalar RSUExampleScenario.node[25].veinsmobility 	minSpeed 	0.25743375147809
scalar RSUExampleScenario.node[25].veinsmobility 	maxSpeed 	18.999850195486
scalar RSUExampleScenario.node[25].veinsmobility 	totalDistance 	3409.7366048807
scalar RSUExampleScenario.node[25].veinsmobility 	totalCO2Emission 	706.02593719985
scalar RSUExampleScenario.node[26].veinsmobility 	startTime 	156.1
scalar RSUExampleScenario.node[26].veinsmobility 	totalTime 	227
scalar RSUExampleScenario.node[26].veinsmobility 	stopTime 	383.2
scalar RSUExampleScenario.node[26].veinsmobility 	minSpeed 	0.25230239790725
scalar RSUExampleScenario.node[26].veinsmobility 	maxSpeed 	18.999973817831
scalar RSUExampleScenario.node[26].veinsmobility 	totalDistance 	3409.5912164137
scalar RSUExampleScenario.node[26].veinsmobility 	totalCO2Emission 	706.06154610047
scalar RSUExampleScenario.node[27].veinsmobility 	startTime 	162.1
scalar RSUExampleScenario.node[27].veinsmobility 	totalTime 	226.9
scalar RSUExampleScenario.node[27].veinsmobility 	stopTime 	389.1
scalar RSUExampleScenario.node[27].veinsmobility 	minSpeed 	0.24878523709229
scalar RSUExampleScenario.node[27].veinsmobility 	maxSpeed 	18.99984814147
scalar RSUExampleScenario.node[27].veinsmobility 	totalDistance 	3409.2230863738
scalar RSUExampleScenario.node[27].veinsmobility 	totalCO2Emission 	707.87872926598
scalar RSUExampleScenario.node[28].veinsmobility 	startTime 	168.1
scalar RSUExampleScenario.node[28].veinsmobility 	totalTime 	226.6
scalar RSUExampleScenario.node[28].veinsmobility 	stopTime 	394.8
scalar RSUExampleScenario.node[28].veinsmobility 	minSpeed 	0.24822054727655
scalar RSUExampleScenario.node[28].veinsmobility 	maxSpeed 	18.999645264044
scalar RSUExampleScenario.node[28].veinsmobility 	totalDistance 	3409.3754634576
scalar RSUExampleScenario.node[28].veinsmobility 	totalCO2Emission 	708.66051290722
scalar RSUExampleScenario.node[29].veinsmobility 	startTime 	174.1
scalar RSUExampleScenario.node[29].veinsmobility 	totalTime 	226.7
scalar RSUExampleScenario.node[29].veinsmobility 	stopTime 	400.9
scalar RSUExampleScenario.node[29].veinsmobility 	minSpeed 	0.24964486876805
scalar RSUExampleScenario.node[29].veinsmobility 	maxSpeed 	18.99980955079
scalar RSUExampleScenario.node[29].veinsmobility 	totalDistance 	3409.5188297358
scalar RSUExampleScenario.node[29].veinsmobility 	totalCO2Emission 	708.48730108866
scalar RSUExampleScenario.node[30].veinsmobility 	startTime 	180.1
scalar RSUExampleScenario.node[30].veinsmobility 	totalTime 	226.9
scalar RSUExampleScenario.node[30].veinsmobility 	stopTime 	407.1
scalar RSUExampleScenario.node[30].veinsmobility 	minSpeed 	0.25530739764823
scalar RSUExampleScenario.node[30].veinsmobility 	maxSpeed 	18.99985809888
scalar RSUExampleScenario.node[30].veinsmobility 	totalDistance 	3409.4758829019
scalar RSUExampleScenario.node[30].veinsmobility 	totalCO2Emission 	701.33713548864
scalar RSUExampleScenario.node[31].veinsmobility 	startTime 	186.1
scalar RSUExampleScenario.node[31].veinsmobility 	totalTime 	227.1
scalar RSUExampleScenario.node[31].veinsmobility 	stopTime 	413.3
scalar RSUExampleScenario.node[31].veinsmobility 	minSpeed 	0.25391739710514
scalar RSUExampleScenario.node[31].veinsmobility 	maxSpeed 	18.999822949821
scalar RSUExampleScenario.node[31].veinsmobility 	totalDistance 	3409.1823348685
scalar RSUExampleScenario.node[31].veinsmobility 	totalCO2Emission 	711.59365589751
scalar RSUExampleScenario.node[32].veinsmobility 	startTime 	192.1
scalar RSUExampleScenario.node[32].veinsmobility 	totalTime 	227
scalar RSUExampleScenario.node[32].veinsmobility 	stopTime 	419.2
scalar RSUExampleScenario.node[32].veinsmobility 	minSpeed 	0.25139234450157
scalar RSUExampleScenario.node[32].veinsmobility 	maxSpeed 	18.999116483277
scalar RSUExampleScenario.node[32].veinsmobility 	totalDistance 	3409.3026032377
scalar RSUExampleScenario.node[32].veinsmobility 	totalCO2Emission 	706.23825145924
scalar RSUExampleScenario.node[33].veinsmobility 	startTime 	198.1
scalar RSUExampleScenario.node[33].veinsmobility 	totalTime 	226.9
scalar RSUExampleScenario.node[33].veinsmobility 	stopTime 	425.1
scalar RSUExampleScenario.node[33].veinsmobility 	minSpeed 	0.24894412050047
scalar RSUExampleScenario.node[33].veinsmobility 	maxSpeed 	18.999831535546
scalar RSUExampleScenario.node[33].veinsmobility 	totalDistance 	3409.7996859618
scalar RSUExampleScenario.node[33].veinsmobility 	totalCO2Emission 	708.55143698145
scalar RSUExampleScenario.node[34].veinsmobility 	startTime 	204.1
scalar RSUExampleScenario.node[34].veinsmobility 	totalTime 	226.7
scalar RSUExampleScenario.node[34].veinsmobility 	stopTime 	430.9
scalar RSUExampleScenario.node[34].veinsmobility 	minSpeed 	0.2578365472958
scalar RSUExampleScenario.node[34].veinsmobility 	maxSpeed 	18.999922681223
scalar RSUExampleScenario.node[34].veinsmobility 	totalDistance 	3409.6442414165
scalar RSUExampleScenario.node[34].veinsmobility 	totalCO2Emission 	708.22909614031
scalar RSUExampleScenario.node[35].veinsmobility 	startTime 	210.1
scalar RSUExampleScenario.node[35].veinsmobility 	totalTime 	226.9
scalar RSUExampleScenario.node[35].veinsmobility 	stopTime 	437.1
scalar RSUExampleScenario.node[35].veinsmobility 	minSpeed 	0.25267187109939
scalar RSUExampleScenario.node[35].veinsmobility 	maxSpeed 	18.99977850277
scalar RSUExampleScenario.node[35].veinsmobility 	totalDistance 	3409.5696222056
scalar RSUExampleScenario.node[35].veinsmobility 	totalCO2Emission 	707.18849459325
scalar RSUExampleScenario.node[36].veinsmobility 	startTime 	216.1
scalar RSUExampleScenario.node[36].veinsmobility 	totalTime 	227
scalar RSUExampleScenario.node[36].veinsmobility 	stopTime 	443.2
scalar RSUExampleScenario.node[36].veinsmobility 	minSpeed 	0.25012879356951
scalar RSUExampleScenario.node[36].veinsmobility 	maxSpeed 	18.999659235503
scalar RSUExampleScenario.node[36].veinsmobility 	totalDistance 	3409.8238044652
scalar RSUExampleScenario.node[36].veinsmobility 	totalCO2Emission 	708.57500588022
scalar RSUExampleScenario.node[37].veinsmobility 	startTime 	222.1
scalar RSUExampleScenario.node[37].veinsmobility 	totalTime 	226.9
scalar RSUExampleScenario.node[37].veinsmobility 	stopTime 	449.1
scalar RSUExampleScenario.node[37].veinsmobility 	minSpeed 	0.25923976956913
scalar RSUExampleScenario.node[37].veinsmobility 	maxSpeed 	18.999760238433
scalar RSUExampleScenario.node[37].veinsmobility 	totalDistance 	3409.285534999
scalar RSUExampleScenario.node[37].veinsmobility 	totalCO2Emission 	706.96892512855
scalar RSUExampleScenario.node[38].veinsmobility 	startTime 	228.1
scalar RSUExampleScenario.node[38].veinsmobility 	totalTime 	226.9
scalar RSUExampleScenario.node[38].veinsmobility 	stopTime 	455.1
scalar RSUExampleScenario.node[38].veinsmobility 	minSpeed 	0.24842814564542
scalar RSUExampleScenario.node[38].veinsmobility 	maxSpeed 	18.999733849927
scalar RSUExampleScenario.node[38].veinsmobility 	totalDistance 	3409.2463423632
scalar RSUExampleScenario.node[38].veinsmobility 	totalCO2Emission 	703.57999555707
scalar RSUExampleScenario.node[39].veinsmobility 	startTime 	234.1
scalar RSUExampleScenario.node[39].veinsmobility 	totalTime 	226.7
scalar RSUExampleScenario.node[39].veinsmobility 	stopTime 	460.9
scalar RSUExampleScenario.node[39].veinsmobility 	minSpeed 	0.2490540108881
scalar RSUExampleScenario.node[39].veinsmobility 	maxSpeed 	18.999910238842
scalar RSUExampleScenario.node[39].veinsmobility 	totalDistance 	3409.5359626522
scalar RSUExampleScenario.node[39].veinsmobility 	totalCO2Emission 	707.44275582319
scalar RSUExampleScenario.node[40].veinsmobility 	startTime 	240.1
scalar RSUExampleScenario.node[40].veinsmobility 	totalTime 	227.1
scalar RSUExampleScenario.node[40].veinsmobility 	stopTime 	467.3
scalar RSUExampleScenario.node[40].veinsmobility 	minSpeed 	0.25874436601321
scalar RSUExampleScenario.node[40].veinsmobility 	maxSpeed 	18.998840035915
scalar RSUExampleScenario.node[40].veinsmobility 	totalDistance 	3409.7366524996
scalar RSUExampleScenario.node[40].veinsmobility 	totalCO2Emission 	706.64227135268
scalar RSUExampleScenario.node[41].veinsmobility 	startTime 	246.1
scalar RSUExampleScenario.node[41].veinsmobility 	totalTime 	227.3
scalar RSUExampleScenario.node[41].veinsmobility 	stopTime 	473.5
scalar RSUExampleScenario.node[41].veinsmobility 	minSpeed 	0.24840003650752
scalar RSUExampleScenario.node[41].veinsmobility 	maxSpeed 	18.999822502127
scalar RSUExampleScenario.node[41].veinsmobility 	totalDistance 	3409.5252682216
scalar RSUExampleScenario.node[41].veinsmobility 	totalCO2Emission 	706.69725484655
scalar RSUExampleScenario.node[42].veinsmobility 	startTime 	252.1
scalar RSUExampleScenario.node[42].veinsmobility 	totalTime 	227.1
scalar RSUExampleScenario.node[42].veinsmobility 	stopTime 	479.3
scalar RSUExampleScenario.node[42].veinsmobility 	minSpeed 	0.25295535827405
scalar RSUExampleScenario.node[42].veinsmobility 	maxSpeed 	18.999235120637
scalar RSUExampleScenario.node[42].veinsmobility 	totalDistance 	3409.4320325633
scalar RSUExampleScenario.node[42].veinsmobility 	totalCO2Emission 	710.65904633401
scalar RSUExampleScenario.node[43].veinsmobility 	startTime 	258.1
scalar RSUExampleScenario.node[43].veinsmobility 	totalTime 	226.9
scalar RSUExampleScenario.node[43].veinsmobility 	stopTime 	485.1
scalar RSUExampleScenario.node[43].veinsmobility 	minSpeed 	0.25251400129939
scalar RSUExampleScenario.node[43].veinsmobility 	maxSpeed 	18.999920323801
scalar RSUExampleScenario.node[43].veinsmobility 	totalDistance 	3409.7802229349
scalar RSUExampleScenario.node[43].veinsmobility 	totalCO2Emission 	704.90903794182
scalar RSUExampleScenario.node[44].veinsmobility 	startTime 	264.1
scalar RSUExampleScenario.node[44].veinsmobility 	totalTime 	227
scalar RSUExampleScenario.node[44].veinsmobility 	stopTime 	491.2
scalar RSUExampleScenario.node[44].veinsmobility 	minSpeed 	0.25702856299141
scalar RSUExampleScenario.node[44].veinsmobility 	maxSpeed 	18.999947304197
scalar RSUExampleScenario.node[44].veinsmobility 	totalDistance 	3409.469220514
scalar RSUExampleScenario.node[44].veinsmobility 	totalCO2Emission 	711.48634149307
scalar RSUExampleScenario.node[45].veinsmobility 	startTime 	270.1
scalar RSUExampleScenario.node[45].veinsmobility 	totalTime 	226.8
scalar RSUExampleScenario.node[45].veinsmobility 	stopTime 	497
scalar RSUExampleScenario.node[45].veinsmobility 	minSpeed 	0.24964039146435
scalar RSUExampleScenario.node[45].veinsmobility 	maxSpeed 	18.99993186583
scalar RSUExampleScenario.node[45].veinsmobility 	totalDistance 	3409.3759360354
scalar RSUExampleScenario.node[45].veinsmobility 	totalCO2Emission 	706.72307181405
scalar RSUExampleScenario.node[46].veinsmobility 	startTime 	276.1
scalar RSUExampleScenario.node[46].veinsmobility 	totalTime 	226.9
scalar RSUExampleScenario.node[46].veinsmobility 	stopTime 	503.1
scalar RSUExampleScenario.node[46].veinsmobility 	minSpeed 	0.25030962148076
scalar RSUExampleScenario.node[46].veinsmobility 	maxSpeed 	18.999690105184
scalar RSUExampleScenario.node[46].veinsmobility 	totalDistance 	3409.7060699164
scalar RSUExampleScenario.node[46].veinsmobility 	totalCO2Emission 	705.98111405442
scalar RSUExampleScenario.node[47].veinsmobility 	startTime 	282.1
scalar RSUExampleScenario.node[47].veinsmobility 	totalTime 	226.7
scalar RSUExampleScenario.node[47].veinsmobility 	stopTime 	508.9
scalar RSUExampleScenario.node[47].veinsmobility 	minSpeed 	0.25242059564567
scalar RSUExampleScenario.node[47].veinsmobility 	maxSpeed 	18.999997824579
scalar RSUExampleScenario.node[47].veinsmobility 	totalDistance 	3409.2449150772
scalar RSUExampleScenario.node[47].veinsmobility 	totalCO2Emission 	708.08844986172
scalar RSUExampleScenario.node[48].veinsmobility 	startTime 	288.1
scalar RSUExampleScenario.node[48].veinsmobility 	totalTime 	226.9
scalar RSUExampleScenario.node[48].veinsmobility 	stopTime 	515.1
scalar RSUExampleScenario.node[48].veinsmobility 	minSpeed 	0.25855040758732
scalar RSUExampleScenario.node[48].veinsmobility 	maxSpeed 	18.999641910109
scalar RSUExampleScenario.node[48].veinsmobility 	totalDistance 	3409.4273958732
scalar RSUExampleScenario.node[48].veinsmobility 	totalCO2Emission 	709.38699739266
scalar RSUExampleScenario.node[49].veinsmobility 	startTime 	294.1
scalar RSUExampleScenario.node[49].veinsmobility 	totalTime 	227
scalar RSUExampleScenario.node[49].veinsmobility 	stopTime 	521.2
scalar RSUExampleScenario.node[49].veinsmobility 	minSpeed 	0.25568042328767
scalar RSUExampleScenario.node[49].veinsmobility 	maxSpeed 	18.999802432244
scalar RSUExampleScenario.node[49].veinsmobility 	totalDistance 	3409.8627225905
scalar RSUExampleScenario.node[49].veinsmobility 	totalCO2Emission 	705.7030954994
scalar RSUExampleScenario.node[50].veinsmobility 	startTime 	300.1
scalar RSUExampleScenario.node[50].veinsmobility 	totalTime 	226.7
scalar RSUExampleScenario.node[50].veinsmobility 	stopTime 	526.9
scalar RSUExampleScenario.node[50].veinsmobility 	minSpeed 	0.24711729415436
scalar RSUExampleScenario.node[50].veinsmobility 	maxSpeed 	18.99994854019
scalar RSUExampleScenario.node[50].veinsmobility 	totalDistance 	3409.3901623689
scalar RSUExampleScenario.node[50].veinsmobility 	totalCO2Emission 	705.54254629111
scalar RSUExampleScenario.node[51].veinsmobility 	startTime 	306.1
scalar RSUExampleScenario.node[51].veinsmobility 	totalTime 	226.6
scalar RSUExampleScenario.node[51].veinsmobility 	stopTime 	532.8
scalar RSUExampleScenario.node[51].veinsmobility 	minSpeed 	0.25465481629409
scalar RSUExampleScenario.node[51].veinsmobility 	maxSpeed 	18.999817939743
scalar RSUExampleScenario.node[51].veinsmobility 	totalDistance 	3409.2688562426
scalar RSUExampleScenario.node[51].veinsmobility 	totalCO2Emission 	707.77231792133
scalar RSUExampleScenario.node[52].veinsmobility 	startTime 	312.1
scalar RSUExampleScenario.node[52].veinsmobility 	totalTime 	227.1
scalar RSUExampleScenario.node[52].veinsmobility 	stopTime 	539.3
scalar RSUExampleScenario.node[52].veinsmobility 	minSpeed 	0.25357650257996
scalar RSUExampleScenario.node[52].veinsmobility 	maxSpeed 	18.999931290708
scalar RSUExampleScenario.node[52].veinsmobility 	totalDistance 	3409.57518621
scalar RSUExampleScenario.node[52].veinsmobility 	totalCO2Emission 	708.80337156086
scalar RSUExampleScenario.node[53].veinsmobility 	startTime 	318.1
scalar RSUExampleScenario.node[53].veinsmobility 	totalTime 	226.8
scalar RSUExampleScenario.node[53].veinsmobility 	stopTime 	545
scalar RSUExampleScenario.node[53].veinsmobility 	minSpeed 	0.25419996580388
scalar RSUExampleScenario.node[53].veinsmobility 	maxSpeed 	18.999957979443
scalar RSUExampleScenario.node[53].veinsmobility 	totalDistance 	3409.8037034434
scalar RSUExampleScenario.node[53].veinsmobility 	totalCO2Emission 	708.1407712121
scalar RSUExampleScenario.node[54].veinsmobility 	startTime 	324.1
scalar RSUExampleScenario.node[54].veinsmobility 	totalTime 	226.6
scalar RSUExampleScenario.node[54].veinsmobility 	stopTime 	550.8
scalar RSUExampleScenario.node[54].veinsmobility 	minSpeed 	0.25846689115278
scalar RSUExampleScenario.node[54].veinsmobility 	maxSpeed 	18.999807172271
scalar RSUExampleScenario.node[54].veinsmobility 	totalDistance 	3409.5901195563
scalar RSUExampleScenario.node[54].veinsmobility 	totalCO2Emission 	705.81659490113
scalar RSUExampleScenario.node[55].veinsmobility 	startTime 	330.1
scalar RSUExampleScenario.node[55].veinsmobility 	totalTime 	227.1
scalar RSUExampleScenario.node[55].veinsmobility 	stopTime 	557.3
scalar RSUExampleScenario.node[55].veinsmobility 	minSpeed 	0.25131324583059
scalar RSUExampleScenario.node[55].veinsmobility 	maxSpeed 	18.999862837817
scalar RSUExampleScenario.node[55].veinsmobility 	totalDistance 	3409.241411049
scalar RSUExampleScenario.node[55].veinsmobility 	totalCO2Emission 	711.15275033588
scalar RSUExampleScenario.node[56].veinsmobility 	startTime 	336.1
scalar RSUExampleScenario.node[56].veinsmobility 	totalTime 	226.9
scalar RSUExampleScenario.node[56].veinsmobility 	stopTime 	563.1
scalar RSUExampleScenario.node[56].veinsmobility 	minSpeed 	0.25164901655517
scalar RSUExampleScenario.node[56].veinsmobility 	maxSpeed 	18.99877425275
scalar RSUExampleScenario.node[56].veinsmobility 	totalDistance 	3409.3407363218
scalar RSUExampleScenario.node[56].veinsmobility 	totalCO2Emission 	706.59562654775
scalar RSUExampleScenario.node[57].veinsmobility 	startTime 	342.1
scalar RSUExampleScenario.node[57].veinsmobility 	totalTime 	226.8
scalar RSUExampleScenario.node[57].veinsmobility 	stopTime 	569
scalar RSUExampleScenario.node[57].veinsmobility 	minSpeed 	0.25795751389186
scalar RSUExampleScenario.node[57].veinsmobility 	maxSpeed 	18.999160290342
scalar RSUExampleScenario.node[57].veinsmobility 	totalDistance 	3409.369165724
scalar RSUExampleScenario.node[57].veinsmobility 	totalCO2Emission 	705.93199029611
scalar RSUExampleScenario.node[58].veinsmobility 	startTime 	348.1
scalar RSUExampleScenario.node[58].veinsmobility 	totalTime 	226.9
scalar RSUExampleScenario.node[58].veinsmobility 	stopTime 	575.1
scalar RSUExampleScenario.node[58].veinsmobility 	minSpeed 	0.24946484784968
scalar RSUExampleScenario.node[58].veinsmobility 	maxSpeed 	18.999504725588
scalar RSUExampleScenario.node[58].veinsmobility 	totalDistance 	3409.5853258329
scalar RSUExampleScenario.node[58].veinsmobility 	totalCO2Emission 	707.91641429701
scalar RSUExampleScenario.node[59].veinsmobility 	startTime 	354.1
scalar RSUExampleScenario.node[59].veinsmobility 	totalTime 	226.9
scalar RSUExampleScenario.node[59].veinsmobility 	stopTime 	581.1
scalar RSUExampleScenario.node[59].veinsmobility 	minSpeed 	0.2578068092803
scalar RSUExampleScenario.node[59].veinsmobility 	maxSpeed 	18.999746276962
scalar RSUExampleScenario.node[59].veinsmobility 	totalDistance 	3409.6844219779
scalar RSUExampleScenario.node[59].veinsmobility 	totalCO2Emission 	709.17116277783
scalar RSUExampleScenario.node[60].veinsmobility 	startTime 	360.1
scalar RSUExampleScenario.node[60].veinsmobility 	totalTime 	227
scalar RSUExampleScenario.node[60].veinsmobility 	stopTime 	587.2
scalar RSUExampleScenario.node[60].veinsmobility 	minSpeed 	0.25166154633509
scalar RSUExampleScenario.node[60].veinsmobility 	maxSpeed 	18.999903968163
scalar RSUExampleScenario.node[60].veinsmobility 	totalDistance 	3409.227047426
scalar RSUExampleScenario.node[60].veinsmobility 	totalCO2Emission 	706.26601033693
scalar RSUExampleScenario.node[61].veinsmobility 	startTime 	366.1
scalar RSUExampleScenario.node[61].veinsmobility 	totalTime 	227
scalar RSUExampleScenario.node[61].veinsmobility 	stopTime 	593.2
scalar RSUExampleScenario.node[61].veinsmobility 	minSpeed 	0.25329343283712
scalar RSUExampleScenario.node[61].veinsmobility 	maxSpeed 	18.999797140916
scalar RSUExampleScenario.node[61].veinsmobility 	totalDistance 	3409.0189579225
scalar RSUExampleScenario.node[61].veinsmobility 	totalCO2Emission 	709.12845652703
scalar RSUExampleScenario.node[62].veinsmobility 	startTime 	372.1
scalar RSUExampleScenario.node[62].veinsmobility 	totalTime 	226.9
scalar RSUExampleScenario.node[62].veinsmobility 	stopTime 	599.1
scalar RSUExampleScenario.node[62].veinsmobility 	minSpeed 	0.25147460374935
scalar RSUExampleScenario.node[62].veinsmobility 	maxSpeed 	18.998858693191
scalar RSUExampleScenario.node[62].veinsmobility 	totalDistance 	3409.2907054455
scalar RSUExampleScenario.node[62].veinsmobility 	totalCO2Emission 	705.35953420442
scalar RSUExampleScenario.node[63].veinsmobility 	startTime 	378.1
scalar RSUExampleScenario.node[63].veinsmobility 	totalTime 	227
scalar RSUExampleScenario.node[63].veinsmobility 	stopTime 	605.2
scalar RSUExampleScenario.node[63].veinsmobility 	minSpeed 	0.25528339726804
scalar RSUExampleScenario.node[63].veinsmobility 	maxSpeed 	18.999855956906
scalar RSUExampleScenario.node[63].veinsmobility 	totalDistance 	3409.2768998375
scalar RSUExampleScenario.node[63].veinsmobility 	totalCO2Emission 	708.17420562125
scalar RSUExampleScenario.node[64].veinsmobility 	startTime 	384.1
scalar RSUExampleScenario.node[64].veinsmobility 	totalTime 	226.9
scalar RSUExampleScenario.node[64].veinsmobility 	stopTime 	611.1
scalar RSUExampleScenario.node[64].veinsmobility 	minSpeed 	0.24751837178576
scalar RSUExampleScenario.node[64].veinsmobility 	maxSpeed 	18.999909804284
scalar RSUExampleScenario.node[64].veinsmobility 	totalDistance 	3409.2124673631
scalar RSUExampleScenario.node[64].veinsmobility 	totalCO2Emission 	705.97044084698
scalar RSUExampleScenario.node[65].veinsmobility 	startTime 	390.1
scalar RSUExampleScenario.node[65].veinsmobility 	totalTime 	226.6
scalar RSUExampleScenario.node[65].veinsmobility 	stopTime 	616.8
scalar RSUExampleScenario.node[65].veinsmobility 	minSpeed 	0.24739589815889
scalar RSUExampleScenario.node[65].veinsmobility 	maxSpeed 	18.999914652791
scalar RSUExampleScenario.node[65].veinsmobility 	totalDistance 	3409.1954953846
scalar RSUExampleScenario.node[65].veinsmobility 	totalCO2Emission 	701.86116178036
scalar RSUExampleScenario.node[66].veinsmobility 	startTime 	396.1
scalar RSUExampleScenario.node[66].veinsmobility 	totalTime 	226.8
scalar RSUExampleScenario.node[66].veinsmobility 	stopTime 	623
scalar RSUExampleScenario.node[66].veinsmobility 	minSpeed 	0.24762089912617
scalar RSUExampleScenario.node[66].veinsmobility 	maxSpeed 	18.999881665623
scalar RSUExampleScenario.node[66].veinsmobility 	totalDistance 	3409.2684781657
scalar RSUExampleScenario.node[66].veinsmobility 	totalCO2Emission 	705.62497095731
scalar RSUExampleScenario.node[67].veinsmobility 	startTime 	402.1
scalar RSUExampleScenario.node[67].veinsmobility 	totalTime 	226.8
scalar RSUExampleScenario.node[67].veinsmobility 	stopTime 	629
scalar RSUExampleScenario.node[67].veinsmobility 	minSpeed 	0.24971609695815
scalar RSUExampleScenario.node[67].veinsmobility 	maxSpeed 	18.999966037567
scalar RSUExampleScenario.node[67].veinsmobility 	totalDistance 	3409.5740838062
scalar RSUExampleScenario.node[67].veinsmobility 	totalCO2Emission 	709.42964071046
scalar RSUExampleScenario.node[68].veinsmobility 	startTime 	408.1
scalar RSUExampleScenario.node[68].veinsmobility 	totalTime 	226.8
scalar RSUExampleScenario.node[68].veinsmobility 	stopTime 	635
scalar RSUExampleScenario.node[68].veinsmobility 	minSpeed 	0.25188334439881
scalar RSUExampleScenario.node[68].veinsmobility 	maxSpeed 	18.999886567735
scalar RSUExampleScenario.node[68].veinsmobility 	totalDistance 	3409.3584240485
scalar RSUExampleScenario.node[68].veinsmobility 	totalCO2Emission 	706.46996033109
scalar RSUExampleScenario.node[69].veinsmobility 	startTime 	414.1
scalar RSUExampleScenario.node[69].veinsmobility 	totalTime 	226.8
scalar RSUExampleScenario.node[69].veinsmobility 	stopTime 	641
scalar RSUExampleScenario.node[69].veinsmobility 	minSpeed 	0.25497024843795
scalar RSUExampleScenario.node[69].veinsmobility 	maxSpeed 	18.9998739047
scalar RSUExampleScenario.node[69].veinsmobility 	totalDistance 	3409.7815937436
scalar RSUExampleScenario.node[69].veinsmobility 	totalCO2Emission 	707.66143756588
scalar RSUExampleScenario.node[70].veinsmobility 	startTime 	420.1
scalar RSUExampleScenario.node[70].veinsmobility 	totalTime 	227.1
scalar RSUExampleScenario.node[70].veinsmobility 	stopTime 	647.3
scalar RSUExampleScenario.node[70].veinsmobility 	minSpeed 	0.24978470019065
scalar RSUExampleScenario.node[70].veinsmobility 	maxSpeed 	18.999637030032
scalar RSUExampleScenario.node[70].veinsmobility 	totalDistance 	3409.2551696611
scalar RSUExampleScenario.node[70].veinsmobility 	totalCO2Emission 	710.28731078957
scalar RSUExampleScenario.node[71].veinsmobility 	startTime 	426.1
scalar RSUExampleScenario.node[71].veinsmobility 	totalTime 	226.8
scalar RSUExampleScenario.node[71].veinsmobility 	stopTime 	653
scalar RSUExampleScenario.node[71].veinsmobility 	minSpeed 	0.24742317039915
scalar RSUExampleScenario.node[71].veinsmobility 	maxSpeed 	18.999820685957
scalar RSUExampleScenario.node[71].veinsmobility 	totalDistance 	3409.1825961712
scalar RSUExampleScenario.node[71].veinsmobility 	totalCO2Emission 	707.73870887585
scalar RSUExampleScenario.node[72].veinsmobility 	startTime 	432.1
scalar RSUExampleScenario.node[72].veinsmobility 	totalTime 	226.9
scalar RSUExampleScenario.node[72].veinsmobility 	stopTime 	659.1
scalar RSUExampleScenario.node[72].veinsmobility 	minSpeed 	0.25435862121545
scalar RSUExampleScenario.node[72].veinsmobility 	maxSpeed 	18.999836916164
scalar RSUExampleScenario.node[72].veinsmobility 	totalDistance 	3409.6821418137
scalar RSUExampleScenario.node[72].veinsmobility 	totalCO2Emission 	705.38262250426
scalar RSUExampleScenario.node[73].veinsmobility 	startTime 	438.1
scalar RSUExampleScenario.node[73].veinsmobility 	totalTime 	226.7
scalar RSUExampleScenario.node[73].veinsmobility 	stopTime 	664.9
scalar RSUExampleScenario.node[73].veinsmobility 	minSpeed 	0.25212195545272
scalar RSUExampleScenario.node[73].veinsmobility 	maxSpeed 	18.999553138169
scalar RSUExampleScenario.node[73].veinsmobility 	totalDistance 	3409.1803942142
scalar RSUExampleScenario.node[73].veinsmobility 	totalCO2Emission 	707.29689951612
scalar RSUExampleScenario.node[74].veinsmobility 	startTime 	444.1
scalar RSUExampleScenario.node[74].veinsmobility 	totalTime 	227
scalar RSUExampleScenario.node[74].veinsmobility 	stopTime 	671.2
scalar RSUExampleScenario.node[74].veinsmobility 	minSpeed 	0.2591980253614
scalar RSUExampleScenario.node[74].veinsmobility 	maxSpeed 	18.999662084023
scalar RSUExampleScenario.node[74].veinsmobility 	totalDistance 	3409.2505083081
scalar RSUExampleScenario.node[74].veinsmobility 	totalCO2Emission 	707.57395454914
scalar RSUExampleScenario.node[75].veinsmobility 	startTime 	450.1
scalar RSUExampleScenario.node[75].veinsmobility 	totalTime 	226.9
scalar RSUExampleScenario.node[75].veinsmobility 	stopTime 	677.1
scalar RSUExampleScenario.node[75].veinsmobility 	minSpeed 	0.25792762667639
scalar RSUExampleScenario.node[75].veinsmobility 	maxSpeed 	18.999527435687
scalar RSUExampleScenario.node[75].veinsmobility 	totalDistance 	3409.5245098637
scalar RSUExampleScenario.node[75].veinsmobility 	totalCO2Emission 	706.59291846556
scalar RSUExampleScenario.node[76].veinsmobility 	startTime 	456.1
scalar RSUExampleScenario.node[76].veinsmobility 	totalTime 	226.8
scalar RSUExampleScenario.node[76].veinsmobility 	stopTime 	683
scalar RSUExampleScenario.node[76].veinsmobility 	minSpeed 	0.24884489314817
scalar RSUExampleScenario.node[76].veinsmobility 	maxSpeed 	18.999731718879
scalar RSUExampleScenario.node[76].veinsmobility 	totalDistance 	3409.8594113112
scalar RSUExampleScenario.node[76].veinsmobility 	totalCO2Emission 	708.8911672767
scalar RSUExampleScenario.node[77].veinsmobility 	startTime 	462.1
scalar RSUExampleScenario.node[77].veinsmobility 	totalTime 	226.6
scalar RSUExampleScenario.node[77].veinsmobility 	stopTime 	688.8
scalar RSUExampleScenario.node[77].veinsmobility 	minSpeed 	0.24988289646409
scalar RSUExampleScenario.node[77].veinsmobility 	maxSpeed 	18.999877521088
scalar RSUExampleScenario.node[77].veinsmobility 	totalDistance 	3409.2417977
scalar RSUExampleScenario.node[77].veinsmobility 	totalCO2Emission 	706.14588131619
scalar RSUExampleScenario.node[78].veinsmobility 	startTime 	468.1
scalar RSUExampleScenario.node[78].veinsmobility 	totalTime 	227
scalar RSUExampleScenario.node[78].veinsmobility 	stopTime 	695.2
scalar RSUExampleScenario.node[78].veinsmobility 	minSpeed 	0.25528847835748
scalar RSUExampleScenario.node[78].veinsmobility 	maxSpeed 	18.999485571887
scalar RSUExampleScenario.node[78].veinsmobility 	totalDistance 	3409.3372579815
scalar RSUExampleScenario.node[78].veinsmobility 	totalCO2Emission 	709.36468223144
scalar RSUExampleScenario.node[79].veinsmobility 	startTime 	474.1
scalar RSUExampleScenario.node[79].veinsmobility 	totalTime 	226.8
scalar RSUExampleScenario.node[79].veinsmobility 	stopTime 	701
scalar RSUExampleScenario.node[79].veinsmobility 	minSpeed 	0.25647536471835
scalar RSUExampleScenario.node[79].veinsmobility 	maxSpeed 	18.99942886485
scalar RSUExampleScenario.node[79].veinsmobility 	totalDistance 	3409.5045968622
scalar RSUExampleScenario.node[79].veinsmobility 	totalCO2Emission 	709.39338014864
scalar RSUExampleScenario.node[80].veinsmobility 	startTime 	480.1
scalar RSUExampleScenario.node[80].veinsmobility 	totalTime 	227
scalar RSUExampleScenario.node[80].veinsmobility 	stopTime 	707.2
scalar RSUExampleScenario.node[80].veinsmobility 	minSpeed 	0.25924782377062
scalar RSUExampleScenario.node[80].veinsmobility 	maxSpeed 	18.999911882696
scalar RSUExampleScenario.node[80].veinsmobility 	totalDistance 	3409.3353280545
scalar RSUExampleScenario.node[80].veinsmobility 	totalCO2Emission 	705.45077271466
scalar RSUExampleScenario.node[81].veinsmobility 	startTime 	486.1
scalar RSUExampleScenario.node[81].veinsmobility 	totalTime 	226.8
scalar RSUExampleScenario.node[81].veinsmobility 	stopTime 	713
scalar RSUExampleScenario.node[81].veinsmobility 	minSpeed 	0.25762887218851
scalar RSUExampleScenario.node[81].veinsmobility 	maxSpeed 	18.999983252482
scalar RSUExampleScenario.node[81].veinsmobility 	totalDistance 	3409.3426682705
scalar RSUExampleScenario.node[81].veinsmobility 	totalCO2Emission 	705.2508716306
scalar RSUExampleScenario.node[82].veinsmobility 	startTime 	492.1
scalar RSUExampleScenario.node[82].veinsmobility 	totalTime 	227.1
scalar RSUExampleScenario.node[82].veinsmobility 	stopTime 	719.3
scalar RSUExampleScenario.node[82].veinsmobility 	minSpeed 	0.2536209765391
scalar RSUExampleScenario.node[82].veinsmobility 	maxSpeed 	18.999800692652
scalar RSUExampleScenario.node[82].veinsmobility 	totalDistance 	3409.7250878216
scalar RSUExampleScenario.node[82].veinsmobility 	totalCO2Emission 	707.42755870146
scalar RSUExampleScenario.node[83].veinsmobility 	startTime 	498.1
scalar RSUExampleScenario.node[83].veinsmobility 	totalTime 	227.1
scalar RSUExampleScenario.node[83].veinsmobility 	stopTime 	725.3
scalar RSUExampleScenario.node[83].veinsmobility 	minSpeed 	0.25934119689837
scalar RSUExampleScenario.node[83].veinsmobility 	maxSpeed 	18.999943139232
scalar RSUExampleScenario.node[83].veinsmobility 	totalDistance 	3409.1645479199
scalar RSUExampleScenario.node[83].veinsmobility 	totalCO2Emission 	705.23625812641
scalar RSUExampleScenario.node[84].veinsmobility 	startTime 	504.1
scalar RSUExampleScenario.node[84].veinsmobility 	totalTime 	227
scalar RSUExampleScenario.node[84].veinsmobility 	stopTime 	731.2
scalar RSUExampleScenario.node[84].veinsmobility 	minSpeed 	0.25205237706751
scalar RSUExampleScenario.node[84].veinsmobility 	maxSpeed 	18.999714045615
scalar RSUExampleScenario.node[84].veinsmobility 	totalDistance 	3409.4681704061
scalar RSUExampleScenario.node[84].veinsmobility 	totalCO2Emission 	707.41222899231
scalar RSUExampleScenario.node[85].veinsmobility 	startTime 	510.1
scalar RSUExampleScenario.node[85].veinsmobility 	totalTime 	226.7
scalar RSUExampleScenario.node[85].veinsmobility 	stopTime 	736.9
scalar RSUExampleScenario.node[85].veinsmobility 	minSpeed 	0.25769176082872
scalar RSUExampleScenario.node[85].veinsmobility 	maxSpeed 	18.999824754065
scalar RSUExampleScenario.node[85].veinsmobility 	totalDistance 	3409.2673205031
scalar RSUExampleScenario.node[85].veinsmobility 	totalCO2Emission 	708.44340454559
scalar RSUExampleScenario.node[86].veinsmobility 	startTime 	516.1
scalar RSUExampleScenario.node[86].veinsmobility 	totalTime 	226.8
scalar RSUExampleScenario.node[86].veinsmobility 	stopTime 	743
scalar RSUExampleScenario.node[86].veinsmobility 	minSpeed 	0.25704760297574
scalar RSUExampleScenario.node[86].veinsmobility 	maxSpeed 	18.99810145719
scalar RSUExampleScenario.node[86].veinsmobility 	totalDistance 	3409.3370302289
scalar RSUExampleScenario.node[86].veinsmobility 	totalCO2Emission 	707.52187258454
scalar RSUExampleScenario.node[87].veinsmobility 	startTime 	522.1
scalar RSUExampleScenario.node[87].veinsmobility 	totalTime 	226.9
scalar RSUExampleScenario.node[87].veinsmobility 	stopTime 	749.1
scalar RSUExampleScenario.node[87].veinsmobility 	minSpeed 	0.25865761668258
scalar RSUExampleScenario.node[87].veinsmobility 	maxSpeed 	18.999720497236
scalar RSUExampleScenario.node[87].veinsmobility 	totalDistance 	3409.7618021101
scalar RSUExampleScenario.node[87].veinsmobility 	totalCO2Emission 	706.97328572811
scalar RSUExampleScenario.node[88].veinsmobility 	startTime 	528.1
scalar RSUExampleScenario.node[88].veinsmobility 	totalTime 	226.7
scalar RSUExampleScenario.node[88].veinsmobility 	stopTime 	754.9
scalar RSUExampleScenario.node[88].veinsmobility 	minSpeed 	0.25677809222415
scalar RSUExampleScenario.node[88].veinsmobility 	maxSpeed 	18.999885992038
scalar RSUExampleScenario.node[88].veinsmobility 	totalDistance 	3409.408173952
scalar RSUExampleScenario.node[88].veinsmobility 	totalCO2Emission 	706.92754611752
scalar RSUExampleScenario.node[89].veinsmobility 	startTime 	534.1
scalar RSUExampleScenario.node[89].veinsmobility 	totalTime 	226.7
scalar RSUExampleScenario.node[89].veinsmobility 	stopTime 	760.9
scalar RSUExampleScenario.node[89].veinsmobility 	minSpeed 	0.25689946714137
scalar RSUExampleScenario.node[89].veinsmobility 	maxSpeed 	18.999582088224
scalar RSUExampleScenario.node[89].veinsmobility 	totalDistance 	3409.5034798463
scalar RSUExampleScenario.node[89].veinsmobility 	totalCO2Emission 	709.60846571938
scalar RSUExampleScenario.node[90].veinsmobility 	startTime 	540.1
scalar RSUExampleScenario.node[90].veinsmobility 	totalTime 	226.9
scalar RSUExampleScenario.node[90].veinsmobility 	stopTime 	767.1
scalar RSUExampleScenario.node[90].veinsmobility 	minSpeed 	0.25158697881759
scalar RSUExampleScenario.node[90].veinsmobility 	maxSpeed 	18.999923131459
scalar RSUExampleScenario.node[90].veinsmobility 	totalDistance 	3409.6951561666
scalar RSUExampleScenario.node[90].veinsmobility 	totalCO2Emission 	708.88372916983
scalar RSUExampleScenario.node[91].veinsmobility 	startTime 	546.1
scalar RSUExampleScenario.node[91].veinsmobility 	totalTime 	226.8
scalar RSUExampleScenario.node[91].veinsmobility 	stopTime 	773
scalar RSUExampleScenario.node[91].veinsmobility 	minSpeed 	0.25378441108367
scalar RSUExampleScenario.node[91].veinsmobility 	maxSpeed 	18.999766494976
scalar RSUExampleScenario.node[91].veinsmobility 	totalDistance 	3409.0927110058
scalar RSUExampleScenario.node[91].veinsmobility 	totalCO2Emission 	704.9954489828
scalar RSUExampleScenario.node[92].veinsmobility 	startTime 	552.1
scalar RSUExampleScenario.node[92].veinsmobility 	totalTime 	226.9
scalar RSUExampleScenario.node[92].veinsmobility 	stopTime 	779.1
scalar RSUExampleScenario.node[92].veinsmobility 	minSpeed 	0.252666852928
scalar RSUExampleScenario.node[92].veinsmobility 	maxSpeed 	18.999823319241
scalar RSUExampleScenario.node[92].veinsmobility 	totalDistance 	3409.6421314883
scalar RSUExampleScenario.node[92].veinsmobility 	totalCO2Emission 	705.86806532627
scalar RSUExampleScenario.node[93].veinsmobility 	startTime 	558.1
scalar RSUExampleScenario.node[93].veinsmobility 	totalTime 	226.9
scalar RSUExampleScenario.node[93].veinsmobility 	stopTime 	785.1
scalar RSUExampleScenario.node[93].veinsmobility 	minSpeed 	0.24934525167593
scalar RSUExampleScenario.node[93].veinsmobility 	maxSpeed 	18.999622622139
scalar RSUExampleScenario.node[93].veinsmobility 	totalDistance 	3409.0897045423
scalar RSUExampleScenario.node[93].veinsmobility 	totalCO2Emission 	706.33354514326
scalar RSUExampleScenario.node[94].veinsmobility 	startTime 	564.1
scalar RSUExampleScenario.node[94].veinsmobility 	totalTime 	227.2
scalar RSUExampleScenario.node[94].veinsmobility 	stopTime 	791.4
scalar RSUExampleScenario.node[94].veinsmobility 	minSpeed 	0.25078963849787
scalar RSUExampleScenario.node[94].veinsmobility 	maxSpeed 	18.999922069144
scalar RSUExampleScenario.node[94].veinsmobility 	totalDistance 	3409.8186344603
scalar RSUExampleScenario.node[94].veinsmobility 	totalCO2Emission 	707.85510631801
scalar RSUExampleScenario.node[95].veinsmobility 	startTime 	570.1
scalar RSUExampleScenario.node[95].veinsmobility 	totalTime 	226.9
scalar RSUExampleScenario.node[95].veinsmobility 	stopTime 	797.1
scalar RSUExampleScenario.node[95].veinsmobility 	minSpeed 	0.25905882986612
scalar RSUExampleScenario.node[95].veinsmobility 	maxSpeed 	18.999812379121
scalar RSUExampleScenario.node[95].veinsmobility 	totalDistance 	3409.2898337223
scalar RSUExampleScenario.node[95].veinsmobility 	totalCO2Emission 	710.56915745903
scalar RSUExampleScenario.node[96].veinsmobility 	startTime 	576.1
scalar RSUExampleScenario.node[96].veinsmobility 	totalTime 	226.9
scalar RSUExampleScenario.node[96].veinsmobility 	stopTime 	803.1
scalar RSUExampleScenario.node[96].veinsmobility 	minSpeed 	0.25204975705873
scalar RSUExampleScenario.node[96].veinsmobility 	maxSpeed 	18.999698817944
scalar RSUExampleScenario.node[96].veinsmobility 	totalDistance 	3409.4342686397
scalar RSUExampleScenario.node[96].veinsmobility 	totalCO2Emission 	706.14409506097
scalar RSUExampleScenario.node[97].veinsmobility 	startTime 	582.1
scalar RSUExampleScenario.node[97].veinsmobility 	totalTime 	227.1
scalar RSUExampleScenario.node[97].veinsmobility 	stopTime 	809.3
scalar RSUExampleScenario.node[97].veinsmobility 	minSpeed 	0.25933691930585
scalar RSUExampleScenario.node[97].veinsmobility 	maxSpeed 	18.999938045524
scalar RSUExampleScenario.node[97].veinsmobility 	totalDistance 	3409.3245742741
scalar RSUExampleScenario.node[97].veinsmobility 	totalCO2Emission 	704.3353322663
scalar RSUExampleScenario.node[98].veinsmobility 	startTime 	588.1
scalar RSUExampleScenario.node[98].veinsmobility 	totalTime 	226.8
scalar RSUExampleScenario.node[98].veinsmobility 	stopTime 	815
scalar RSUExampleScenario.node[98].veinsmobility 	minSpeed 	0.25846234179614
scalar RSUExampleScenario.node[98].veinsmobility 	maxSpeed 	18.999858201519
scalar RSUExampleScenario.node[98].veinsmobility 	totalDistance 	3409.5995120855
scalar RSUExampleScenario.node[98].veinsmobility 	totalCO2Emission 	704.69835051138
scalar RSUExampleScenario.node[99].veinsmobility 	startTime 	594.1
scalar RSUExampleScenario.node[99].veinsmobility 	totalTime 	227.1
scalar RSUExampleScenario.node[99].veinsmobility 	stopTime 	821.3
scalar RSUExampleScenario.node[99].veinsmobility 	minSpeed 	0.25092509875447
scalar RSUExampleScenario.node[99].veinsmobility 	maxSpeed 	18.999745960783
scalar RSUExampleScenario.node[99].veinsmobility 	totalDistance 	3409.4679471323
scalar RSUExampleScenario.node[99].veinsmobility 	totalCO2Emission 	705.67002430523
scalar RSUExampleScenario.node[100].veinsmobility 	startTime 	600.1
scalar RSUExampleScenario.node[100].veinsmobility 	totalTime 	226.7
scalar RSUExampleScenario.node[100].veinsmobility 	stopTime 	826.9
scalar RSUExampleScenario.node[100].veinsmobility 	minSpeed 	0.25960617814912
scalar RSUExampleScenario.node[100].veinsmobility 	maxSpeed 	18.99986395295
scalar RSUExampleScenario.node[100].veinsmobility 	totalDistance 	3409.7238329494
scalar RSUExampleScenario.node[100].veinsmobility 	totalCO2Emission 	706.44227583995
scalar RSUExampleScenario.node[101].veinsmobility 	startTime 	606.1
scalar RSUExampleScenario.node[101].veinsmobility 	totalTime 	226.9
scalar RSUExampleScenario.node[101].veinsmobility 	stopTime 	833.1
scalar RSUExampleScenario.node[101].veinsmobility 	minSpeed 	0.25903870460205
scalar RSUExampleScenario.node[101].veinsmobility 	maxSpeed 	18.999959480825
scalar RSUExampleScenario.node[101].veinsmobility 	totalDistance 	3409.9491707706
scalar RSUExampleScenario.node[101].veinsmobility 	totalCO2Emission 	710.10662685746
scalar RSUExampleScenario.node[102].veinsmobility 	startTime 	612.1
scalar RSUExampleScenario.node[102].veinsmobility 	totalTime 	226.7
scalar RSUExampleScenario.node[102].veinsmobility 	stopTime 	838.9
scalar RSUExampleScenario.node[102].veinsmobility 	minSpeed 	0.25717842547502
scalar RSUExampleScenario.node[102].veinsmobility 	maxSpeed 	18.999825340779
scalar RSUExampleScenario.node[102].veinsmobility 	totalDistance 	3409.6319851902
scalar RSUExampleScenario.node[102].veinsmobility 	totalCO2Emission 	704.87599030388
scalar RSUExampleScenario.node[103].veinsmobility 	startTime 	618.1
scalar RSUExampleScenario.node[103].veinsmobility 	totalTime 	226.9
scalar RSUExampleScenario.node[103].veinsmobility 	stopTime 	845.1
scalar RSUExampleScenario.node[103].veinsmobility 	minSpeed 	0.24981237220136
scalar RSUExampleScenario.node[103].veinsmobility 	maxSpeed 	18.999722079556
scalar RSUExampleScenario.node[103].veinsmobility 	totalDistance 	3409.5654747922
scalar RSUExampleScenario.node[103].veinsmobility 	totalCO2Emission 	711.73417770807
scalar RSUExampleScenario.node[104].veinsmobility 	startTime 	624.1
scalar RSUExampleScenario.node[104].veinsmobility 	totalTime 	226.7
scalar RSUExampleScenario.node[104].veinsmobility 	stopTime 	850.9
scalar RSUExampleScenario.node[104].veinsmobility 	minSpeed 	0.25395973119047
scalar RSUExampleScenario.node[104].veinsmobility 	maxSpeed 	18.998930639492
scalar RSUExampleScenario.node[104].veinsmobility 	totalDistance 	3409.8709587833
scalar RSUExampleScenario.node[104].veinsmobility 	totalCO2Emission 	706.8133354992
scalar RSUExampleScenario.node[105].veinsmobility 	startTime 	630.1
scalar RSUExampleScenario.node[105].veinsmobility 	totalTime 	226.6
scalar RSUExampleScenario.node[105].veinsmobility 	stopTime 	856.8
scalar RSUExampleScenario.node[105].veinsmobility 	minSpeed 	0.25738389826263
scalar RSUExampleScenario.node[105].veinsmobility 	maxSpeed 	18.999993180593
scalar RSUExampleScenario.node[105].veinsmobility 	totalDistance 	3409.2780287859
scalar RSUExampleScenario.node[105].veinsmobility 	totalCO2Emission 	705.17312804634
scalar RSUExampleScenario.node[106].veinsmobility 	startTime 	636.1
scalar RSUExampleScenario.node[106].veinsmobility 	totalTime 	226.9
scalar RSUExampleScenario.node[106].veinsmobility 	stopTime 	863.1
scalar RSUExampleScenario.node[106].veinsmobility 	minSpeed 	0.24945521872328
scalar RSUExampleScenario.node[106].veinsmobility 	maxSpeed 	18.999910386882
scalar RSUExampleScenario.node[106].veinsmobility 	totalDistance 	3409.4670987652
scalar RSUExampleScenario.node[106].veinsmobility 	totalCO2Emission 	707.56387974074
scalar RSUExampleScenario.node[107].veinsmobility 	startTime 	642.1
scalar RSUExampleScenario.node[107].veinsmobility 	totalTime 	227.1
scalar RSUExampleScenario.node[107].veinsmobility 	stopTime 	869.3
scalar RSUExampleScenario.node[107].veinsmobility 	minSpeed 	0.24876297791419
scalar RSUExampleScenario.node[107].veinsmobility 	maxSpeed 	18.99938388142
scalar RSUExampleScenario.node[107].veinsmobility 	totalDistance 	3409.7311402812
scalar RSUExampleScenario.node[107].veinsmobility 	totalCO2Emission 	707.32912796598
scalar RSUExampleScenario.node[108].veinsmobility 	startTime 	648.1
scalar RSUExampleScenario.node[108].veinsmobility 	totalTime 	226.8
scalar RSUExampleScenario.node[108].veinsmobility 	stopTime 	875
scalar RSUExampleScenario.node[108].veinsmobility 	minSpeed 	0.24783997467253
scalar RSUExampleScenario.node[108].veinsmobility 	maxSpeed 	18.999992604291
scalar RSUExampleScenario.node[108].veinsmobility 	totalDistance 	3409.5741437785
scalar RSUExampleScenario.node[108].veinsmobility 	totalCO2Emission 	708.46983201751
scalar RSUExampleScenario.node[109].veinsmobility 	startTime 	654.1
scalar RSUExampleScenario.node[109].veinsmobility 	totalTime 	226.9
scalar RSUExampleScenario.node[109].veinsmobility 	stopTime 	881.1
scalar RSUExampleScenario.node[109].veinsmobility 	minSpeed 	0.25347283674264
scalar RSUExampleScenario.node[109].veinsmobility 	maxSpeed 	18.999390961253
scalar RSUExampleScenario.node[109].veinsmobility 	totalDistance 	3409.5629678431
scalar RSUExampleScenario.node[109].veinsmobility 	totalCO2Emission 	708.30901039018
scalar RSUExampleScenario.node[110].veinsmobility 	startTime 	660.1
scalar RSUExampleScenario.node[110].veinsmobility 	totalTime 	227
scalar RSUExampleScenario.node[110].veinsmobility 	stopTime 	887.2
scalar RSUExampleScenario.node[110].veinsmobility 	minSpeed 	0.25545979206078
scalar RSUExampleScenario.node[110].veinsmobility 	maxSpeed 	18.999890325202
scalar RSUExampleScenario.node[110].veinsmobility 	totalDistance 	3409.9063239099
scalar RSUExampleScenario.node[110].veinsmobility 	totalCO2Emission 	707.43131072565
scalar RSUExampleScenario.node[111].veinsmobility 	startTime 	666.1
scalar RSUExampleScenario.node[111].veinsmobility 	totalTime 	227.3
scalar RSUExampleScenario.node[111].veinsmobility 	stopTime 	893.5
scalar RSUExampleScenario.node[111].veinsmobility 	minSpeed 	0.25200594731839
scalar RSUExampleScenario.node[111].veinsmobility 	maxSpeed 	18.999802729415
scalar RSUExampleScenario.node[111].veinsmobility 	totalDistance 	3409.9249900262
scalar RSUExampleScenario.node[111].veinsmobility 	totalCO2Emission 	707.24449741093
scalar RSUExampleScenario.node[112].veinsmobility 	startTime 	672.1
scalar RSUExampleScenario.node[112].veinsmobility 	totalTime 	227
scalar RSUExampleScenario.node[112].veinsmobility 	stopTime 	899.2
scalar RSUExampleScenario.node[112].veinsmobility 	minSpeed 	0.25414440052654
scalar RSUExampleScenario.node[112].veinsmobility 	maxSpeed 	18.999699964556
scalar RSUExampleScenario.node[112].veinsmobility 	totalDistance 	3409.5881653787
scalar RSUExampleScenario.node[112].veinsmobility 	totalCO2Emission 	705.77875049492
scalar RSUExampleScenario.node[113].veinsmobility 	startTime 	678.1
scalar RSUExampleScenario.node[113].veinsmobility 	totalTime 	226.6
scalar RSUExampleScenario.node[113].veinsmobility 	stopTime 	904.8
scalar RSUExampleScenario.node[113].veinsmobility 	minSpeed 	0.25453256824543
scalar RSUExampleScenario.node[113].veinsmobility 	maxSpeed 	18.999905786875
scalar RSUExampleScenario.node[113].veinsmobility 	totalDistance 	3409.4657015626
scalar RSUExampleScenario.node[113].veinsmobility 	totalCO2Emission 	705.1480951616
scalar RSUExampleScenario.node[114].veinsmobility 	startTime 	684.1
scalar RSUExampleScenario.node[114].veinsmobility 	totalTime 	227.1
scalar RSUExampleScenario.node[114].veinsmobility 	stopTime 	911.3
scalar RSUExampleScenario.node[114].veinsmobility 	minSpeed 	0.24823431101255
scalar RSUExampleScenario.node[114].veinsmobility 	maxSpeed 	18.999824133147
scalar RSUExampleScenario.node[114].veinsmobility 	totalDistance 	3409.4395068525
scalar RSUExampleScenario.node[114].veinsmobility 	totalCO2Emission 	711.45091521896
scalar RSUExampleScenario.node[115].veinsmobility 	startTime 	690.1
scalar RSUExampleScenario.node[115].veinsmobility 	totalTime 	226.8
scalar RSUExampleScenario.node[115].veinsmobility 	stopTime 	917
scalar RSUExampleScenario.node[115].veinsmobility 	minSpeed 	0.25013122985465
scalar RSUExampleScenario.node[115].veinsmobility 	maxSpeed 	18.999182774187
scalar RSUExampleScenario.node[115].veinsmobility 	totalDistance 	3409.4680573673
scalar RSUExampleScenario.node[115].veinsmobility 	totalCO2Emission 	708.41920073409
scalar RSUExampleScenario.node[116].veinsmobility 	startTime 	696.1
scalar RSUExampleScenario.node[116].veinsmobility 	totalTime 	226.9
scalar RSUExampleScenario.node[116].veinsmobility 	stopTime 	923.1
scalar RSUExampleScenario.node[116].veinsmobility 	minSpeed 	0.25378592283628
scalar RSUExampleScenario.node[116].veinsmobility 	maxSpeed 	18.999889871636
scalar RSUExampleScenario.node[116].veinsmobility 	totalDistance 	3409.3281810943
scalar RSUExampleScenario.node[116].veinsmobility 	totalCO2Emission 	708.93269747892
scalar RSUExampleScenario.node[117].veinsmobility 	startTime 	702.1
scalar RSUExampleScenario.node[117].veinsmobility 	totalTime 	226.8
scalar RSUExampleScenario.node[117].veinsmobility 	stopTime 	929
scalar RSUExampleScenario.node[117].veinsmobility 	minSpeed 	0.25585362989921
scalar RSUExampleScenario.node[117].veinsmobility 	maxSpeed 	18.999882483978
scalar RSUExampleScenario.node[117].veinsmobility 	totalDistance 	3409.0261290256
scalar RSUExampleScenario.node[117].veinsmobility 	totalCO2Emission 	707.5382840898
scalar RSUExampleScenario.node[118].veinsmobility 	startTime 	708.1
scalar RSUExampleScenario.node[118].veinsmobility 	totalTime 	226.8
scalar RSUExampleScenario.node[118].veinsmobility 	stopTime 	935
scalar RSUExampleScenario.node[118].veinsmobility 	minSpeed 	0.25950828801515
scalar RSUExampleScenario.node[118].veinsmobility 	maxSpeed 	18.999971868573
scalar RSUExampleScenario.node[118].veinsmobility 	totalDistance 	3409.5491881242
scalar RSUExampleScenario.node[118].veinsmobility 	totalCO2Emission 	703.21314464594
scalar RSUExampleScenario.node[119].veinsmobility 	startTime 	714.1
scalar RSUExampleScenario.node[119].veinsmobility 	totalTime 	226.8
scalar RSUExampleScenario.node[119].veinsmobility 	stopTime 	941
scalar RSUExampleScenario.node[119].veinsmobility 	minSpeed 	0.25874007431581
scalar RSUExampleScenario.node[119].veinsmobility 	maxSpeed 	18.999867805822
scalar RSUExampleScenario.node[119].veinsmobility 	totalDistance 	3409.5646086225
scalar RSUExampleScenario.node[119].veinsmobility 	totalCO2Emission 	703.49927081747
scalar RSUExampleScenario.node[120].veinsmobility 	startTime 	720.1
scalar RSUExampleScenario.node[120].veinsmobility 	totalTime 	227.1
scalar RSUExampleScenario.node[120].veinsmobility 	stopTime 	947.3
scalar RSUExampleScenario.node[120].veinsmobility 	minSpeed 	0.24767316844407
scalar RSUExampleScenario.node[120].veinsmobility 	maxSpeed 	18.99997506239
scalar RSUExampleScenario.node[120].veinsmobility 	totalDistance 	3409.5283263996
scalar RSUExampleScenario.node[120].veinsmobility 	totalCO2Emission 	707.44465232632
scalar RSUExampleScenario.node[121].veinsmobility 	startTime 	726.1
scalar RSUExampleScenario.node[121].veinsmobility 	totalTime 	227.1
scalar RSUExampleScenario.node[121].veinsmobility 	stopTime 	953.3
scalar RSUExampleScenario.node[121].veinsmobility 	minSpeed 	0.25212295300374
scalar RSUExampleScenario.node[121].veinsmobility 	maxSpeed 	18.999919465643
scalar RSUExampleScenario.node[121].veinsmobility 	totalDistance 	3409.6273530467
scalar RSUExampleScenario.node[121].veinsmobility 	totalCO2Emission 	705.47172463275
scalar RSUExampleScenario.node[122].veinsmobility 	startTime 	732.1
scalar RSUExampleScenario.node[122].veinsmobility 	totalTime 	226.9
scalar RSUExampleScenario.node[122].veinsmobility 	stopTime 	959.1
scalar RSUExampleScenario.node[122].veinsmobility 	minSpeed 	0.25545140856784
scalar RSUExampleScenario.node[122].veinsmobility 	maxSpeed 	18.999985421335
scalar RSUExampleScenario.node[122].veinsmobility 	totalDistance 	3409.3676953963
scalar RSUExampleScenario.node[122].veinsmobility 	totalCO2Emission 	706.15219364946
scalar RSUExampleScenario.node[123].veinsmobility 	startTime 	738.1
scalar RSUExampleScenario.node[123].veinsmobility 	totalTime 	226.5
scalar RSUExampleScenario.node[123].veinsmobility 	stopTime 	964.7
scalar RSUExampleScenario.node[123].veinsmobility 	minSpeed 	0.25773831261229
scalar RSUExampleScenario.node[123].veinsmobility 	maxSpeed 	18.999980926267
scalar RSUExampleScenario.node[123].veinsmobility 	totalDistance 	3409.2616375223
scalar RSUExampleScenario.node[123].veinsmobility 	totalCO2Emission 	707.09229741436
scalar RSUExampleScenario.node[124].veinsmobility 	startTime 	744.1
scalar RSUExampleScenario.node[124].veinsmobility 	totalTime 	226.6
scalar RSUExampleScenario.node[124].veinsmobility 	stopTime 	970.8
scalar RSUExampleScenario.node[124].veinsmobility 	minSpeed 	0.2473014758369
scalar RSUExampleScenario.node[124].veinsmobility 	maxSpeed 	18.999180473881
scalar RSUExampleScenario.node[124].veinsmobility 	totalDistance 	3409.8217747009
scalar RSUExampleScenario.node[124].veinsmobility 	totalCO2Emission 	703.1556373657
scalar RSUExampleScenario.node[125].veinsmobility 	startTime 	750.1
scalar RSUExampleScenario.node[125].veinsmobility 	totalTime 	227.3
scalar RSUExampleScenario.node[125].veinsmobility 	stopTime 	977.5
scalar RSUExampleScenario.node[125].veinsmobility 	minSpeed 	0.24778051893925
scalar RSUExampleScenario.node[125].veinsmobility 	maxSpeed 	18.999997949647
scalar RSUExampleScenario.node[125].veinsmobility 	totalDistance 	3409.4936677877
scalar RSUExampleScenario.node[125].veinsmobility 	totalCO2Emission 	703.53028705371
scalar RSUExampleScenario.node[126].veinsmobility 	startTime 	756.1
scalar RSUExampleScenario.node[126].veinsmobility 	totalTime 	226.8
scalar RSUExampleScenario.node[126].veinsmobility 	stopTime 	983
scalar RSUExampleScenario.node[126].veinsmobility 	minSpeed 	0.25695661086985
scalar RSUExampleScenario.node[126].veinsmobility 	maxSpeed 	18.99997408319
scalar RSUExampleScenario.node[126].veinsmobility 	totalDistance 	3409.485716108
scalar RSUExampleScenario.node[126].veinsmobility 	totalCO2Emission 	704.24721052073
scalar RSUExampleScenario.node[127].veinsmobility 	startTime 	762.1
scalar RSUExampleScenario.node[127].veinsmobility 	totalTime 	227
scalar RSUExampleScenario.node[127].veinsmobility 	stopTime 	989.2
scalar RSUExampleScenario.node[127].veinsmobility 	minSpeed 	0.25647119170777
scalar RSUExampleScenario.node[127].veinsmobility 	maxSpeed 	18.999960769122
scalar RSUExampleScenario.node[127].veinsmobility 	totalDistance 	3409.8921961181
scalar RSUExampleScenario.node[127].veinsmobility 	totalCO2Emission 	712.46757227501
scalar RSUExampleScenario.node[128].veinsmobility 	startTime 	768.1
scalar RSUExampleScenario.node[128].veinsmobility 	totalTime 	227.1
scalar RSUExampleScenario.node[128].veinsmobility 	stopTime 	995.3
scalar RSUExampleScenario.node[128].veinsmobility 	minSpeed 	0.25443146951147
scalar RSUExampleScenario.node[128].veinsmobility 	maxSpeed 	18.999736637487
scalar RSUExampleScenario.node[128].veinsmobility 	totalDistance 	3409.505777588
scalar RSUExampleScenario.node[128].veinsmobility 	totalCO2Emission 	707.48653834088
scalar RSUExampleScenario.node[129].veinsmobility 	startTime 	774.1
scalar RSUExampleScenario.node[129].veinsmobility 	totalTime 	227
scalar RSUExampleScenario.node[129].veinsmobility 	stopTime 	1001.2
scalar RSUExampleScenario.node[129].veinsmobility 	minSpeed 	0.25069258917822
scalar RSUExampleScenario.node[129].veinsmobility 	maxSpeed 	18.99966080738
scalar RSUExampleScenario.node[129].veinsmobility 	totalDistance 	3409.7098894271
scalar RSUExampleScenario.node[129].veinsmobility 	totalCO2Emission 	706.64065616836
scalar RSUExampleScenario.node[130].veinsmobility 	startTime 	780.1
scalar RSUExampleScenario.node[130].veinsmobility 	totalTime 	226.8
scalar RSUExampleScenario.node[130].veinsmobility 	stopTime 	1007
scalar RSUExampleScenario.node[130].veinsmobility 	minSpeed 	0.2513435675581
scalar RSUExampleScenario.node[130].veinsmobility 	maxSpeed 	18.999997949949
scalar RSUExampleScenario.node[130].veinsmobility 	totalDistance 	3409.4989043513
scalar RSUExampleScenario.node[130].veinsmobility 	totalCO2Emission 	706.2139247459
scalar RSUExampleScenario.node[131].veinsmobility 	startTime 	786.1
scalar RSUExampleScenario.node[131].veinsmobility 	totalTime 	227
scalar RSUExampleScenario.node[131].veinsmobility 	stopTime 	1013.2
scalar RSUExampleScenario.node[131].veinsmobility 	minSpeed 	0.24745441996143
scalar RSUExampleScenario.node[131].veinsmobility 	maxSpeed 	18.999942675889
scalar RSUExampleScenario.node[131].veinsmobility 	totalDistance 	3409.2715011034
scalar RSUExampleScenario.node[131].veinsmobility 	totalCO2Emission 	708.80548763686
scalar RSUExampleScenario.node[132].veinsmobility 	startTime 	792.1
scalar RSUExampleScenario.node[132].veinsmobility 	totalTime 	226.8
scalar RSUExampleScenario.node[132].veinsmobility 	stopTime 	1019
scalar RSUExampleScenario.node[132].veinsmobility 	minSpeed 	0.25300697519281
scalar RSUExampleScenario.node[132].veinsmobility 	maxSpeed 	18.99991391507
scalar RSUExampleScenario.node[132].veinsmobility 	totalDistance 	3409.717788237
scalar RSUExampleScenario.node[132].veinsmobility 	totalCO2Emission 	709.82045762227
scalar RSUExampleScenario.node[133].veinsmobility 	startTime 	798.1
scalar RSUExampleScenario.node[133].veinsmobility 	totalTime 	226.9
scalar RSUExampleScenario.node[133].veinsmobility 	stopTime 	1025.1
scalar RSUExampleScenario.node[133].veinsmobility 	minSpeed 	0.24780337991752
scalar RSUExampleScenario.node[133].veinsmobility 	maxSpeed 	18.999742807888
scalar RSUExampleScenario.node[133].veinsmobility 	totalDistance 	3409.417962882
scalar RSUExampleScenario.node[133].veinsmobility 	totalCO2Emission 	704.72585320124
scalar RSUExampleScenario.node[134].veinsmobility 	startTime 	804.1
scalar RSUExampleScenario.node[134].veinsmobility 	totalTime 	226.7
scalar RSUExampleScenario.node[134].veinsmobility 	stopTime 	1030.9
scalar RSUExampleScenario.node[134].veinsmobility 	minSpeed 	0.25520479464694
scalar RSUExampleScenario.node[134].veinsmobility 	maxSpeed 	18.999742999787
scalar RSUExampleScenario.node[134].veinsmobility 	totalDistance 	3409.2640292168
scalar RSUExampleScenario.node[134].veinsmobility 	totalCO2Emission 	711.60731540763
scalar RSUExampleScenario.node[135].veinsmobility 	startTime 	810.1
scalar RSUExampleScenario.node[135].veinsmobility 	totalTime 	226.9
scalar RSUExampleScenario.node[135].veinsmobility 	stopTime 	1037.1
scalar RSUExampleScenario.node[135].veinsmobility 	minSpeed 	0.2537820328041
scalar RSUExampleScenario.node[135].veinsmobility 	maxSpeed 	18.999986439096
scalar RSUExampleScenario.node[135].veinsmobility 	totalDistance 	3409.6589895521
scalar RSUExampleScenario.node[135].veinsmobility 	totalCO2Emission 	706.94392487816
scalar RSUExampleScenario.node[136].veinsmobility 	startTime 	816.1
scalar RSUExampleScenario.node[136].veinsmobility 	totalTime 	227
scalar RSUExampleScenario.node[136].veinsmobility 	stopTime 	1043.2
scalar RSUExampleScenario.node[136].veinsmobility 	minSpeed 	0.25340965955774
scalar RSUExampleScenario.node[136].veinsmobility 	maxSpeed 	18.999576655969
scalar RSUExampleScenario.node[136].veinsmobility 	totalDistance 	3409.5452758313
scalar RSUExampleScenario.node[136].veinsmobility 	totalCO2Emission 	705.14482424747
scalar RSUExampleScenario.node[137].veinsmobility 	startTime 	822.1
scalar RSUExampleScenario.node[137].veinsmobility 	totalTime 	226.9
scalar RSUExampleScenario.node[137].veinsmobility 	stopTime 	1049.1
scalar RSUExampleScenario.node[137].veinsmobility 	minSpeed 	0.25523824937106
scalar RSUExampleScenario.node[137].veinsmobility 	maxSpeed 	18.999973885661
scalar RSUExampleScenario.node[137].veinsmobility 	totalDistance 	3409.4505001302
scalar RSUExampleScenario.node[137].veinsmobility 	totalCO2Emission 	705.59690455532
scalar RSUExampleScenario.node[138].veinsmobility 	startTime 	828.1
scalar RSUExampleScenario.node[138].veinsmobility 	totalTime 	226.9
scalar RSUExampleScenario.node[138].veinsmobility 	stopTime 	1055.1
scalar RSUExampleScenario.node[138].veinsmobility 	minSpeed 	0.25752524592355
scalar RSUExampleScenario.node[138].veinsmobility 	maxSpeed 	18.999531507608
scalar RSUExampleScenario.node[138].veinsmobility 	totalDistance 	3409.107473518
scalar RSUExampleScenario.node[138].veinsmobility 	totalCO2Emission 	710.79389862456
scalar RSUExampleScenario.node[139].veinsmobility 	startTime 	834.1
scalar RSUExampleScenario.node[139].veinsmobility 	totalTime 	227
scalar RSUExampleScenario.node[139].veinsmobility 	stopTime 	1061.2
scalar RSUExampleScenario.node[139].veinsmobility 	minSpeed 	0.25066997938789
scalar RSUExampleScenario.node[139].veinsmobility 	maxSpeed 	18.999788052682
scalar RSUExampleScenario.node[139].veinsmobility 	totalDistance 	3409.1418193069
scalar RSUExampleScenario.node[139].veinsmobility 	totalCO2Emission 	704.09751027174
scalar RSUExampleScenario.node[140].veinsmobility 	startTime 	840.1
scalar RSUExampleScenario.node[140].veinsmobility 	totalTime 	227
scalar RSUExampleScenario.node[140].veinsmobility 	stopTime 	1067.2
scalar RSUExampleScenario.node[140].veinsmobility 	minSpeed 	0.2507882263693
scalar RSUExampleScenario.node[140].veinsmobility 	maxSpeed 	18.999926736103
scalar RSUExampleScenario.node[140].veinsmobility 	totalDistance 	3409.3712689872
scalar RSUExampleScenario.node[140].veinsmobility 	totalCO2Emission 	706.49943137607
scalar RSUExampleScenario.node[141].veinsmobility 	startTime 	846.1
scalar RSUExampleScenario.node[141].veinsmobility 	totalTime 	226.7
scalar RSUExampleScenario.node[141].veinsmobility 	stopTime 	1072.9
scalar RSUExampleScenario.node[141].veinsmobility 	minSpeed 	0.25671013719263
scalar RSUExampleScenario.node[141].veinsmobility 	maxSpeed 	18.999655662368
scalar RSUExampleScenario.node[141].veinsmobility 	totalDistance 	3409.3031763631
scalar RSUExampleScenario.node[141].veinsmobility 	totalCO2Emission 	707.36411449617
scalar RSUExampleScenario.node[142].veinsmobility 	startTime 	852.1
scalar RSUExampleScenario.node[142].veinsmobility 	totalTime 	227
scalar RSUExampleScenario.node[142].veinsmobility 	stopTime 	1079.2
scalar RSUExampleScenario.node[142].veinsmobility 	minSpeed 	0.24879633391928
scalar RSUExampleScenario.node[142].veinsmobility 	maxSpeed 	18.999165099349
scalar RSUExampleScenario.node[142].veinsmobility 	totalDistance 	3409.3189990037
scalar RSUExampleScenario.node[142].veinsmobility 	totalCO2Emission 	704.54610651802
scalar RSUExampleScenario.node[143].veinsmobility 	startTime 	858.1
scalar RSUExampleScenario.node[143].veinsmobility 	totalTime 	227
scalar RSUExampleScenario.node[143].veinsmobility 	stopTime 	1085.2
scalar RSUExampleScenario.node[143].veinsmobility 	minSpeed 	0.24950204507681
scalar RSUExampleScenario.node[143].veinsmobility 	maxSpeed 	18.999704851503
scalar RSUExampleScenario.node[143].veinsmobility 	totalDistance 	3409.1986682266
scalar RSUExampleScenario.node[143].veinsmobility 	totalCO2Emission 	710.24555373052
scalar RSUExampleScenario.node[144].veinsmobility 	startTime 	864.1
scalar RSUExampleScenario.node[144].veinsmobility 	totalTime 	227.1
scalar RSUExampleScenario.node[144].veinsmobility 	stopTime 	1091.3
scalar RSUExampleScenario.node[144].veinsmobility 	minSpeed 	0.25284616656834
scalar RSUExampleScenario.node[144].veinsmobility 	maxSpeed 	18.999900654817
scalar RSUExampleScenario.node[144].veinsmobility 	totalDistance 	3409.9588312848
scalar RSUExampleScenario.node[144].veinsmobility 	totalCO2Emission 	704.3429289111
scalar RSUExampleScenario.node[145].veinsmobility 	startTime 	870.1
scalar RSUExampleScenario.node[145].veinsmobility 	totalTime 	226.6
scalar RSUExampleScenario.node[145].veinsmobility 	stopTime 	1096.8
scalar RSUExampleScenario.node[145].veinsmobility 	minSpeed 	0.25889519608556
scalar RSUExampleScenario.node[145].veinsmobility 	maxSpeed 	18.999756684427
scalar RSUExampleScenario.node[145].veinsmobility 	totalDistance 	3409.509311854
scalar RSUExampleScenario.node[145].veinsmobility 	totalCO2Emission 	705.48618462488
scalar RSUExampleScenario.node[146].veinsmobility 	startTime 	876.1
scalar RSUExampleScenario.node[146].veinsmobility 	totalTime 	227.2
scalar RSUExampleScenario.node[146].veinsmobility 	stopTime 	1103.4
scalar RSUExampleScenario.node[146].veinsmobility 	minSpeed 	0.2569855718154
scalar RSUExampleScenario.node[146].veinsmobility 	maxSpeed 	18.999846623803
scalar RSUExampleScenario.node[146].veinsmobility 	totalDistance 	3409.3085524242
scalar RSUExampleScenario.node[146].veinsmobility 	totalCO2Emission 	706.29501025891
scalar RSUExampleScenario.node[147].veinsmobility 	startTime 	882.1
scalar RSUExampleScenario.node[147].veinsmobility 	totalTime 	226.9
scalar RSUExampleScenario.node[147].veinsmobility 	stopTime 	1109.1
scalar RSUExampleScenario.node[147].veinsmobility 	minSpeed 	0.2513064949594
scalar RSUExampleScenario.node[147].veinsmobility 	maxSpeed 	18.999959687828
scalar RSUExampleScenario.node[147].veinsmobility 	totalDistance 	3409.5809396285
scalar RSUExampleScenario.node[147].veinsmobility 	totalCO2Emission 	707.49254974573
scalar RSUExampleScenario.node[148].veinsmobility 	startTime 	888.1
scalar RSUExampleScenario.node[148].veinsmobility 	totalTime 	227
scalar RSUExampleScenario.node[148].veinsmobility 	stopTime 	1115.2
scalar RSUExampleScenario.node[148].veinsmobility 	minSpeed 	0.25077090740437
scalar RSUExampleScenario.node[148].veinsmobility 	maxSpeed 	18.999493283292
scalar RSUExampleScenario.node[148].veinsmobility 	totalDistance 	3409.5088321244
scalar RSUExampleScenario.node[148].veinsmobility 	totalCO2Emission 	705.10461817373
scalar RSUExampleScenario.node[149].veinsmobility 	startTime 	894.1
scalar RSUExampleScenario.node[149].veinsmobility 	totalTime 	226.9
scalar RSUExampleScenario.node[149].veinsmobility 	stopTime 	1121.1
scalar RSUExampleScenario.node[149].veinsmobility 	minSpeed 	0.25557282907167
scalar RSUExampleScenario.node[149].veinsmobility 	maxSpeed 	18.999844790804
scalar RSUExampleScenario.node[149].veinsmobility 	totalDistance 	3409.3675754692
scalar RSUExampleScenario.node[149].veinsmobility 	totalCO2Emission 	707.43994982164
scalar RSUExampleScenario.node[150].veinsmobility 	startTime 	900.1
scalar RSUExampleScenario.node[150].veinsmobility 	totalTime 	226.8
scalar RSUExampleScenario.node[150].veinsmobility 	stopTime 	1127
scalar RSUExampleScenario.node[150].veinsmobility 	minSpeed 	0.2476317720972
scalar RSUExampleScenario.node[150].veinsmobility 	maxSpeed 	18.999995579179
scalar RSUExampleScenario.node[150].veinsmobility 	totalDistance 	3409.4100844196
scalar RSUExampleScenario.node[150].veinsmobility 	totalCO2Emission 	706.54735514762
scalar RSUExampleScenario.node[151].veinsmobility 	startTime 	906.1
scalar RSUExampleScenario.node[151].veinsmobility 	totalTime 	226.8
scalar RSUExampleScenario.node[151].veinsmobility 	stopTime 	1133
scalar RSUExampleScenario.node[151].veinsmobility 	minSpeed 	0.25609731313772
scalar RSUExampleScenario.node[151].veinsmobility 	maxSpeed 	18.999787371107
scalar RSUExampleScenario.node[151].veinsmobility 	totalDistance 	3409.4505610571
scalar RSUExampleScenario.node[151].veinsmobility 	totalCO2Emission 	706.92775207339
scalar RSUExampleScenario.node[152].veinsmobility 	startTime 	912.1
scalar RSUExampleScenario.node[152].veinsmobility 	totalTime 	227.1
scalar RSUExampleScenario.node[152].veinsmobility 	stopTime 	1139.3
scalar RSUExampleScenario.node[152].veinsmobility 	minSpeed 	0.25499268382415
scalar RSUExampleScenario.node[152].veinsmobility 	maxSpeed 	18.999822510057
scalar RSUExampleScenario.node[152].veinsmobility 	totalDistance 	3409.6099500217
scalar RSUExampleScenario.node[152].veinsmobility 	totalCO2Emission 	708.39047943981
[...]
scalar RSUExampleScenario.node[262].veinsmobility 	startTime 	1572.1
scalar RSUExampleScenario.node[262].veinsmobility 	totalTime 	226.8
scalar RSUExampleScenario.node[262].veinsmobility 	stopTime 	1799
scalar RSUExampleScenario.node[262].veinsmobility 	minSpeed 	0.25404811449582
scalar RSUExampleScenario.node[262].veinsmobility 	maxSpeed 	18.999394588931
scalar RSUExampleScenario.node[262].veinsmobility 	totalDistance 	3409.4682536798
scalar RSUExampleScenario.node[262].veinsmobility 	totalCO2Emission 	706.54050632157
scalar RSUExampleScenario.node[263].veinsmobility 	startTime 	1578.1
scalar RSUExampleScenario.node[263].veinsmobility 	totalTime 	226.9
scalar RSUExampleScenario.node[263].veinsmobility 	stopTime 	1805.1
scalar RSUExampleScenario.node[263].veinsmobility 	minSpeed 	0.25696780085866
scalar RSUExampleScenario.node[263].veinsmobility 	maxSpeed 	18.999802901307
scalar RSUExampleScenario.node[263].veinsmobility 	totalDistance 	3409.4349997543
scalar RSUExampleScenario.node[263].veinsmobility 	totalCO2Emission 	709.79476907371
scalar RSUExampleScenario.node[264].veinsmobility 	startTime 	1584.1
scalar RSUExampleScenario.node[264].veinsmobility 	totalTime 	226.6
scalar RSUExampleScenario.node[264].veinsmobility 	stopTime 	1810.8
scalar RSUExampleScenario.node[264].veinsmobility 	minSpeed 	0.2477122202965
scalar RSUExampleScenario.node[264].veinsmobility 	maxSpeed 	18.999513352539
scalar RSUExampleScenario.node[264].veinsmobility 	totalDistance 	3409.2819981916
scalar RSUExampleScenario.node[264].veinsmobility 	totalCO2Emission 	703.83033622737
scalar RSUExampleScenario.node[265].veinsmobility 	startTime 	1590.1
scalar RSUExampleScenario.node[265].veinsmobility 	totalTime 	227.1
scalar RSUExampleScenario.node[265].veinsmobility 	stopTime 	1817.3
scalar RSUExampleScenario.node[265].veinsmobility 	minSpeed 	0.25061789053073
scalar RSUExampleScenario.node[265].veinsmobility 	maxSpeed 	18.999928809551
scalar RSUExampleScenario.node[265].veinsmobility 	totalDistance 	3409.3183649059
scalar RSUExampleScenario.node[265].veinsmobility 	totalCO2Emission 	711.05633560475
scalar RSUExampleScenario.node[266].veinsmobility 	startTime 	1596.1
scalar RSUExampleScenario.node[266].veinsmobility 	totalTime 	227.1
scalar RSUExampleScenario.node[266].veinsmobility 	stopTime 	1823.3
scalar RSUExampleScenario.node[266].veinsmobility 	minSpeed 	0.25515337104071
scalar RSUExampleScenario.node[266].veinsmobility 	maxSpeed 	18.999962120526
scalar RSUExampleScenario.node[266].veinsmobility 	totalDistance 	3409.4962726891
scalar RSUExampleScenario.node[266].veinsmobility 	totalCO2Emission 	706.57697709148
scalar RSUExampleScenario.node[267].veinsmobility 	startTime 	1602.1
scalar RSUExampleScenario.node[267].veinsmobility 	totalTime 	226.8
scalar RSUExampleScenario.node[267].veinsmobility 	stopTime 	1829
scalar RSUExampleScenario.node[267].veinsmobility 	minSpeed 	0.2538438538108
scalar RSUExampleScenario.node[267].veinsmobility 	maxSpeed 	18.9999856975
scalar RSUExampleScenario.node[267].veinsmobility 	totalDistance 	3409.3218637118
scalar RSUExampleScenario.node[267].veinsmobility 	totalCO2Emission 	707.12141207979
scalar RSUExampleScenario.node[268].veinsmobility 	startTime 	1608.1
scalar RSUExampleScenario.node[268].veinsmobility 	totalTime 	227
scalar RSUExampleScenario.node[268].veinsmobility 	stopTime 	1835.2
scalar RSUExampleScenario.node[268].veinsmobility 	minSpeed 	0.25719113037945
scalar RSUExampleScenario.node[268].veinsmobility 	maxSpeed 	18.999880795479
scalar RSUExampleScenario.node[268].veinsmobility 	totalDistance 	3409.5082176224
scalar RSUExampleScenario.node[268].veinsmobility 	totalCO2Emission 	703.54530417774
scalar RSUExampleScenario.node[269].veinsmobility 	startTime 	1614.1
scalar RSUExampleScenario.node[269].veinsmobility 	totalTime 	226.9
scalar RSUExampleScenario.node[269].veinsmobility 	stopTime 	1841.1
scalar RSUExampleScenario.node[269].veinsmobility 	minSpeed 	0.24928811379522
scalar RSUExampleScenario.node[269].veinsmobility 	maxSpeed 	18.999792480131
scalar RSUExampleScenario.node[269].veinsmobility 	totalDistance 	3409.4837327098
scalar RSUExampleScenario.node[269].veinsmobility 	totalCO2Emission 	707.87449207672
scalar RSUExampleScenario.node[270].veinsmobility 	startTime 	1620.1
scalar RSUExampleScenario.node[270].veinsmobility 	totalTime 	227.1
scalar RSUExampleScenario.node[270].veinsmobility 	stopTime 	1847.3
scalar RSUExampleScenario.node[270].veinsmobility 	minSpeed 	0.25579314883193
scalar RSUExampleScenario.node[270].veinsmobility 	maxSpeed 	18.999964554496
scalar RSUExampleScenario.node[270].veinsmobility 	totalDistance 	3409.341326115
scalar RSUExampleScenario.node[270].veinsmobility 	totalCO2Emission 	710.0535413823
scalar RSUExampleScenario.node[271].veinsmobility 	startTime 	1626.1
scalar RSUExampleScenario.node[271].veinsmobility 	totalTime 	227
scalar RSUExampleScenario.node[271].veinsmobility 	stopTime 	1853.2
scalar RSUExampleScenario.node[271].veinsmobility 	minSpeed 	0.25035675049596
scalar RSUExampleScenario.node[271].veinsmobility 	maxSpeed 	18.999894350783
scalar RSUExampleScenario.node[271].veinsmobility 	totalDistance 	3409.5152417902
scalar RSUExampleScenario.node[271].veinsmobility 	totalCO2Emission 	704.58867251205
scalar RSUExampleScenario.node[272].veinsmobility 	startTime 	1632.1
scalar RSUExampleScenario.node[272].veinsmobility 	totalTime 	227
scalar RSUExampleScenario.node[272].veinsmobility 	stopTime 	1859.2
scalar RSUExampleScenario.node[272].veinsmobility 	minSpeed 	0.24829913237249
scalar RSUExampleScenario.node[272].veinsmobility 	maxSpeed 	18.999948661444
scalar RSUExampleScenario.node[272].veinsmobility 	totalDistance 	3409.5205099919
scalar RSUExampleScenario.node[272].veinsmobility 	totalCO2Emission 	707.29832298623
scalar RSUExampleScenario.node[273].veinsmobility 	startTime 	1638.1
scalar RSUExampleScenario.node[273].veinsmobility 	totalTime 	226.8
scalar RSUExampleScenario.node[273].veinsmobility 	stopTime 	1865
scalar RSUExampleScenario.node[273].veinsmobility 	minSpeed 	0.25238940412528
scalar RSUExampleScenario.node[273].veinsmobility 	maxSpeed 	18.999715591159
scalar RSUExampleScenario.node[273].veinsmobility 	totalDistance 	3409.3779489668
scalar RSUExampleScenario.node[273].veinsmobility 	totalCO2Emission 	706.7889312403
scalar RSUExampleScenario.node[274].veinsmobility 	startTime 	1644.1
scalar RSUExampleScenario.node[274].veinsmobility 	totalTime 	226.9
scalar RSUExampleScenario.node[274].veinsmobility 	stopTime 	1871.1
scalar RSUExampleScenario.node[274].veinsmobility 	minSpeed 	0.24869261103286
scalar RSUExampleScenario.node[274].veinsmobility 	maxSpeed 	18.999963241289
scalar RSUExampleScenario.node[274].veinsmobility 	totalDistance 	3409.1617972966
scalar RSUExampleScenario.node[274].veinsmobility 	totalCO2Emission 	704.97927676329
scalar RSUExampleScenario.node[275].veinsmobility 	startTime 	1650.1
scalar RSUExampleScenario.node[275].veinsmobility 	totalTime 	226.9
scalar RSUExampleScenario.node[275].veinsmobility 	stopTime 	1877.1
scalar RSUExampleScenario.node[275].veinsmobility 	minSpeed 	0.25295060245041
scalar RSUExampleScenario.node[275].veinsmobility 	maxSpeed 	18.999663451985
scalar RSUExampleScenario.node[275].veinsmobility 	totalDistance 	3409.486350023
scalar RSUExampleScenario.node[275].veinsmobility 	totalCO2Emission 	706.41688677754
scalar RSUExampleScenario.node[276].veinsmobility 	startTime 	1656.1
scalar RSUExampleScenario.node[276].veinsmobility 	totalTime 	226.8
scalar RSUExampleScenario.node[276].veinsmobility 	stopTime 	1883
scalar RSUExampleScenario.node[276].veinsmobility 	minSpeed 	0.25106172365346
scalar RSUExampleScenario.node[276].veinsmobility 	maxSpeed 	18.999463839959
scalar RSUExampleScenario.node[276].veinsmobility 	totalDistance 	3409.3773921901
scalar RSUExampleScenario.node[276].veinsmobility 	totalCO2Emission 	707.44908533717
scalar RSUExampleScenario.node[277].veinsmobility 	startTime 	1662.1
scalar RSUExampleScenario.node[277].veinsmobility 	totalTime 	226.9
scalar RSUExampleScenario.node[277].veinsmobility 	stopTime 	1889.1
scalar RSUExampleScenario.node[277].veinsmobility 	minSpeed 	0.24849208676093
scalar RSUExampleScenario.node[277].veinsmobility 	maxSpeed 	18.999725586495
scalar RSUExampleScenario.node[277].veinsmobility 	totalDistance 	3409.7624884962
scalar RSUExampleScenario.node[277].veinsmobility 	totalCO2Emission 	708.60191129459
scalar RSUExampleScenario.node[278].veinsmobility 	startTime 	1668.1
scalar RSUExampleScenario.node[278].veinsmobility 	totalTime 	226.9
scalar RSUExampleScenario.node[278].veinsmobility 	stopTime 	1895.1
scalar RSUExampleScenario.node[278].veinsmobility 	minSpeed 	0.25924737920356
scalar RSUExampleScenario.node[278].veinsmobility 	maxSpeed 	18.999672264659
scalar RSUExampleScenario.node[278].veinsmobility 	totalDistance 	3409.4045498826
scalar RSUExampleScenario.node[278].veinsmobility 	totalCO2Emission 	704.65656982005
scalar RSUExampleScenario.node[279].veinsmobility 	startTime 	1674.1
scalar RSUExampleScenario.node[279].veinsmobility 	totalTime 	226.9
scalar RSUExampleScenario.node[279].veinsmobility 	stopTime 	1901.1
scalar RSUExampleScenario.node[279].veinsmobility 	minSpeed 	0.24709194098902
scalar RSUExampleScenario.node[279].veinsmobility 	maxSpeed 	18.99934659193
scalar RSUExampleScenario.node[279].veinsmobility 	totalDistance 	3409.5092072176
scalar RSUExampleScenario.node[279].veinsmobility 	totalCO2Emission 	709.20501739811
scalar RSUExampleScenario.node[280].veinsmobility 	startTime 	1680.1
scalar RSUExampleScenario.node[280].veinsmobility 	totalTime 	226.7
scalar RSUExampleScenario.node[280].veinsmobility 	stopTime 	1906.9
scalar RSUExampleScenario.node[280].veinsmobility 	minSpeed 	0.25649895704072
scalar RSUExampleScenario.node[280].veinsmobility 	maxSpeed 	18.999160815764
scalar RSUExampleScenario.node[280].veinsmobility 	totalDistance 	3409.463320048
scalar RSUExampleScenario.node[280].veinsmobility 	totalCO2Emission 	709.77772205566
scalar RSUExampleScenario.node[281].veinsmobility 	startTime 	1686.1
scalar RSUExampleScenario.node[281].veinsmobility 	totalTime 	227
scalar RSUExampleScenario.node[281].veinsmobility 	stopTime 	1913.2
scalar RSUExampleScenario.node[281].veinsmobility 	minSpeed 	0.24966167208762
scalar RSUExampleScenario.node[281].veinsmobility 	maxSpeed 	18.999973888355
scalar RSUExampleScenario.node[281].veinsmobility 	totalDistance 	3409.5722447391
scalar RSUExampleScenario.node[281].veinsmobility 	totalCO2Emission 	707.852667667
scalar RSUExampleScenario.node[282].veinsmobility 	startTime 	1692.1
scalar RSUExampleScenario.node[282].veinsmobility 	totalTime 	226.8
scalar RSUExampleScenario.node[282].veinsmobility 	stopTime 	1919
scalar RSUExampleScenario.node[282].veinsmobility 	minSpeed 	0.24809977769782
scalar RSUExampleScenario.node[282].veinsmobility 	maxSpeed 	18.999560436809
scalar RSUExampleScenario.node[282].veinsmobility 	totalDistance 	3409.690976092
scalar RSUExampleScenario.node[282].veinsmobility 	totalCO2Emission 	704.11574759914
scalar RSUExampleScenario.node[283].veinsmobility 	startTime 	1698.1
scalar RSUExampleScenario.node[283].veinsmobility 	totalTime 	226.7
scalar RSUExampleScenario.node[283].veinsmobility 	stopTime 	1924.9
scalar RSUExampleScenario.node[283].veinsmobility 	minSpeed 	0.25231329406053
scalar RSUExampleScenario.node[283].veinsmobility 	maxSpeed 	18.99976854993
scalar RSUExampleScenario.node[283].veinsmobility 	totalDistance 	3409.561684649
scalar RSUExampleScenario.node[283].veinsmobility 	totalCO2Emission 	705.77680657956
scalar RSUExampleScenario.node[284].veinsmobility 	startTime 	1704.1
scalar RSUExampleScenario.node[284].veinsmobility 	totalTime 	226.8
scalar RSUExampleScenario.node[284].veinsmobility 	stopTime 	1931
scalar RSUExampleScenario.node[284].veinsmobility 	minSpeed 	0.25278727360768
scalar RSUExampleScenario.node[284].veinsmobility 	maxSpeed 	18.999859182958
scalar RSUExampleScenario.node[284].veinsmobility 	totalDistance 	3409.277332369
scalar RSUExampleScenario.node[284].veinsmobility 	totalCO2Emission 	705.71263197111
scalar RSUExampleScenario.node[285].veinsmobility 	startTime 	1710.1
scalar RSUExampleScenario.node[285].veinsmobility 	totalTime 	226.8
scalar RSUExampleScenario.node[285].veinsmobility 	stopTime 	1937
scalar RSUExampleScenario.node[285].veinsmobility 	minSpeed 	0.25147720856965
scalar RSUExampleScenario.node[285].veinsmobility 	maxSpeed 	18.999232699501
scalar RSUExampleScenario.node[285].veinsmobility 	totalDistance 	3409.5485590632
scalar RSUExampleScenario.node[285].veinsmobility 	totalCO2Emission 	707.00678681485
scalar RSUExampleScenario.node[286].veinsmobility 	startTime 	1716.1
scalar RSUExampleScenario.node[286].veinsmobility 	totalTime 	226.9
scalar RSUExampleScenario.node[286].veinsmobility 	stopTime 	1943.1
scalar RSUExampleScenario.node[286].veinsmobility 	minSpeed 	0.25774183829059
scalar RSUExampleScenario.node[286].veinsmobility 	maxSpeed 	18.999884013208
scalar RSUExampleScenario.node[286].veinsmobility 	totalDistance 	3409.2642450351
scalar RSUExampleScenario.node[286].veinsmobility 	totalCO2Emission 	712.75275796778
scalar RSUExampleScenario.node[287].veinsmobility 	startTime 	1722.1
scalar RSUExampleScenario.node[287].veinsmobility 	totalTime 	227
scalar RSUExampleScenario.node[287].veinsmobility 	stopTime 	1949.2
scalar RSUExampleScenario.node[287].veinsmobility 	minSpeed 	0.24805960533675
scalar RSUExampleScenario.node[287].veinsmobility 	maxSpeed 	18.999997098087
scalar RSUExampleScenario.node[287].veinsmobility 	totalDistance 	3409.3347910341
scalar RSUExampleScenario.node[287].veinsmobility 	totalCO2Emission 	707.86623402392
scalar RSUExampleScenario.node[288].veinsmobility 	startTime 	1728.1
scalar RSUExampleScenario.node[288].veinsmobility 	totalTime 	226.8
scalar RSUExampleScenario.node[288].veinsmobility 	stopTime 	1955
scalar RSUExampleScenario.node[288].veinsmobility 	minSpeed 	0.25372365092137
scalar RSUExampleScenario.node[288].veinsmobility 	maxSpeed 	18.999751674319
scalar RSUExampleScenario.node[288].veinsmobility 	totalDistance 	3409.2234210886
scalar RSUExampleScenario.node[288].veinsmobility 	totalCO2Emission 	704.1449387319
scalar RSUExampleScenario.node[289].veinsmobility 	startTime 	1734.1
scalar RSUExampleScenario.node[289].veinsmobility 	totalTime 	226.9
scalar RSUExampleScenario.node[289].veinsmobility 	stopTime 	1961.1
scalar RSUExampleScenario.node[289].veinsmobility 	minSpeed 	0.25119567404618
scalar RSUExampleScenario.node[289].veinsmobility 	maxSpeed 	18.99964933987
scalar RSUExampleScenario.node[289].veinsmobility 	totalDistance 	3409.2501655737
scalar RSUExampleScenario.node[289].veinsmobility 	totalCO2Emission 	708.28122840881
scalar RSUExampleScenario.node[290].veinsmobility 	startTime 	1740.1
scalar RSUExampleScenario.node[290].veinsmobility 	totalTime 	226.8
scalar RSUExampleScenario.node[290].veinsmobility 	stopTime 	1967
scalar RSUExampleScenario.node[290].veinsmobility 	minSpeed 	0.25411919214204
scalar RSUExampleScenario.node[290].veinsmobility 	maxSpeed 	18.999897063582
scalar RSUExampleScenario.node[290].veinsmobility 	totalDistance 	3409.2869721652
scalar RSUExampleScenario.node[290].veinsmobility 	totalCO2Emission 	707.89806252881
scalar RSUExampleScenario.node[291].veinsmobility 	startTime 	1746.1
scalar RSUExampleScenario.node[291].veinsmobility 	totalTime 	227
scalar RSUExampleScenario.node[291].veinsmobility 	stopTime 	1973.2
scalar RSUExampleScenario.node[291].veinsmobility 	minSpeed 	0.25694652078021
scalar RSUExampleScenario.node[291].veinsmobility 	maxSpeed 	18.999919423601
scalar RSUExampleScenario.node[291].veinsmobility 	totalDistance 	3409.6167558101
scalar RSUExampleScenario.node[291].veinsmobility 	totalCO2Emission 	709.47354857251
scalar RSUExampleScenario.node[292].veinsmobility 	startTime 	1752.1
scalar RSUExampleScenario.node[292].veinsmobility 	totalTime 	226.8
scalar RSUExampleScenario.node[292].veinsmobility 	stopTime 	1979
scalar RSUExampleScenario.node[292].veinsmobility 	minSpeed 	0.24971117042308
scalar RSUExampleScenario.node[292].veinsmobility 	maxSpeed 	18.99984653763
scalar RSUExampleScenario.node[292].veinsmobility 	totalDistance 	3409.2576064283
scalar RSUExampleScenario.node[292].veinsmobility 	totalCO2Emission 	708.70620020169
scalar RSUExampleScenario.node[293].veinsmobility 	startTime 	1758.1
scalar RSUExampleScenario.node[293].veinsmobility 	totalTime 	226.7
scalar RSUExampleScenario.node[293].veinsmobility 	stopTime 	1984.9
scalar RSUExampleScenario.node[293].veinsmobility 	minSpeed 	0.25698429008736
scalar RSUExampleScenario.node[293].veinsmobility 	maxSpeed 	18.999645867164
scalar RSUExampleScenario.node[293].veinsmobility 	totalDistance 	3409.5622764597
scalar RSUExampleScenario.node[293].veinsmobility 	totalCO2Emission 	707.68261766517
scalar RSUExampleScenario.node[294].veinsmobility 	startTime 	1764.1
scalar RSUExampleScenario.node[294].veinsmobility 	totalTime 	226.8
scalar RSUExampleScenario.node[294].veinsmobility 	stopTime 	1991
scalar RSUExampleScenario.node[294].veinsmobility 	minSpeed 	0.25822065126244
scalar RSUExampleScenario.node[294].veinsmobility 	maxSpeed 	18.999798701836
scalar RSUExampleScenario.node[294].veinsmobility 	totalDistance 	3409.683326669
scalar RSUExampleScenario.node[294].veinsmobility 	totalCO2Emission 	709.67237132645
scalar RSUExampleScenario.node[295].veinsmobility 	startTime 	1770.1
scalar RSUExampleScenario.node[295].veinsmobility 	totalTime 	226.8
scalar RSUExampleScenario.node[295].veinsmobility 	stopTime 	1997
scalar RSUExampleScenario.node[295].veinsmobility 	minSpeed 	0.25845429552183
scalar RSUExampleScenario.node[295].veinsmobility 	maxSpeed 	18.999930980764
scalar RSUExampleScenario.node[295].veinsmobility 	totalDistance 	3409.4820491293
scalar RSUExampleScenario.node[295].veinsmobility 	totalCO2Emission 	710.61340547078
scalar RSUExampleScenario.node[296].veinsmobility 	startTime 	1776.1
scalar RSUExampleScenario.node[296].veinsmobility 	totalTime 	223.8
scalar RSUExampleScenario.node[296].veinsmobility 	stopTime 	2000
scalar RSUExampleScenario.node[296].veinsmobility 	minSpeed 	0.25331275619939
scalar RSUExampleScenario.node[296].veinsmobility 	maxSpeed 	18.9999653207
scalar RSUExampleScenario.node[296].veinsmobility 	totalDistance 	3390.0761295142
scalar RSUExampleScenario.node[296].veinsmobility 	totalCO2Emission 	694.63396685204
scalar RSUExampleScenario.node[297].veinsmobility 	startTime 	1782.1
scalar RSUExampleScenario.node[297].veinsmobility 	totalTime 	217.8
scalar RSUExampleScenario.node[297].veinsmobility 	stopTime 	2000
scalar RSUExampleScenario.node[297].veinsmobility 	minSpeed 	0.2574273348623
scalar RSUExampleScenario.node[297].veinsmobility 	maxSpeed 	18.999761407292
scalar RSUExampleScenario.node[297].veinsmobility 	totalDistance 	3322.8190926591
scalar RSUExampleScenario.node[297].veinsmobility 	totalCO2Emission 	682.60259520047
scalar RSUExampleScenario.node[298].veinsmobility 	startTime 	1788.1
scalar RSUExampleScenario.node[298].veinsmobility 	totalTime 	211.8
scalar RSUExampleScenario.node[298].veinsmobility 	stopTime 	2000
scalar RSUExampleScenario.node[298].veinsmobility 	minSpeed 	0.25102572702104
scalar RSUExampleScenario.node[298].veinsmobility 	maxSpeed 	18.999587449259
scalar RSUExampleScenario.node[298].veinsmobility 	totalDistance 	3242.642239978
scalar RSUExampleScenario.node[298].veinsmobility 	totalCO2Emission 	668.76488232418
scalar RSUExampleScenario.node[299].veinsmobility 	startTime 	1794.1
scalar RSUExampleScenario.node[299].veinsmobility 	totalTime 	205.8
scalar RSUExampleScenario.node[299].veinsmobility 	stopTime 	2000
scalar RSUExampleScenario.node[299].veinsmobility 	minSpeed 	0.25704038029932
scalar RSUExampleScenario.node[299].veinsmobility 	maxSpeed 	18.999952196199
scalar RSUExampleScenario.node[299].veinsmobility 	totalDistance 	3160.2722366933
scalar RSUExampleScenario.node[299].veinsmobility 	totalCO2Emission 	657.2326133735
