version 2
run statisticLeach-236-20150323-05:16:55-9404
attr c 30
attr configname statisticLeach
attr datetime 20150323-05:16:55
attr experiment statisticLeach
attr inifile omnetpp.ini
attr iterationvars "$p=1/20, $c=30"
attr iterationvars2 "$p=1/20, $c=30, $repetition=6"
attr measurement "$p=1/20, $c=30"
attr network RSUExampleScenario
attr p 1/20
attr processid 9404
attr repetition 6
attr replication #6
attr resultdir results
attr runnumber 236
attr seedset 236

scalar . 	c 	30
scalar RSUExampleScenario.node[0].appl 	meanClusterNodes 	5.5
scalar RSUExampleScenario.node[0].appl 	meanClusterHeadUtility 	17.516056616626
scalar RSUExampleScenario.node[0].appl 	NumberofCH 	0.054054054054054
scalar RSUExampleScenario.node[0].appl 	NumberofON 	0.081081081081081
scalar RSUExampleScenario.node[0].appl 	NumberofFN 	0.86486486486486
scalar RSUExampleScenario.node[0].veinsmobility 	startTime 	0.1
scalar RSUExampleScenario.node[0].veinsmobility 	totalTime 	449.9
scalar RSUExampleScenario.node[0].veinsmobility 	stopTime 	450
scalar RSUExampleScenario.node[0].veinsmobility 	minSpeed 	0
scalar RSUExampleScenario.node[0].veinsmobility 	maxSpeed 	13.999944700121
scalar RSUExampleScenario.node[0].veinsmobility 	totalDistance 	3131.5072623375
scalar RSUExampleScenario.node[0].veinsmobility 	totalCO2Emission 	837.45601130724
scalar RSUExampleScenario.node[1].appl 	meanClusterNodes 	2.5
scalar RSUExampleScenario.node[1].appl 	meanClusterHeadUtility 	17.074574740494
scalar RSUExampleScenario.node[1].appl 	NumberofCH 	0.054054054054054
scalar RSUExampleScenario.node[1].appl 	NumberofON 	0.16216216216216
scalar RSUExampleScenario.node[1].appl 	NumberofFN 	0.78378378378378
scalar RSUExampleScenario.node[1].veinsmobility 	startTime 	2.5
scalar RSUExampleScenario.node[1].veinsmobility 	totalTime 	447.5
scalar RSUExampleScenario.node[1].veinsmobility 	stopTime 	450
scalar RSUExampleScenario.node[1].veinsmobility 	minSpeed 	0
scalar RSUExampleScenario.node[1].veinsmobility 	maxSpeed 	13.999795290483
scalar RSUExampleScenario.node[1].veinsmobility 	totalDistance 	3079.3406793305
scalar RSUExampleScenario.node[1].veinsmobility 	totalCO2Emission 	827.77588427164
scalar RSUExampleScenario.node[10].appl 	meanClusterNodes 	0
scalar RSUExampleScenario.node[10].appl 	meanClusterHeadUtility 	0
scalar RSUExampleScenario.node[10].appl 	NumberofCH 	0
scalar RSUExampleScenario.node[10].appl 	NumberofON 	0.48648648648649
scalar RSUExampleScenario.node[10].appl 	NumberofFN 	0.51351351351351
scalar RSUExampleScenario.node[10].veinsmobility 	startTime 	24.2
scalar RSUExampleScenario.node[10].veinsmobility 	totalTime 	425.8
scalar RSUExampleScenario.node[10].veinsmobility 	stopTime 	450
scalar RSUExampleScenario.node[10].veinsmobility 	minSpeed 	0
scalar RSUExampleScenario.node[10].veinsmobility 	maxSpeed 	13.999881450629
scalar RSUExampleScenario.node[10].veinsmobility 	totalDistance 	2795.2890734551
scalar RSUExampleScenario.node[10].veinsmobility 	totalCO2Emission 	764.53882588006
scalar RSUExampleScenario.node[11].appl 	meanClusterNodes 	0
scalar RSUExampleScenario.node[11].appl 	meanClusterHeadUtility 	0
scalar RSUExampleScenario.node[11].appl 	NumberofCH 	0
scalar RSUExampleScenario.node[11].appl 	NumberofON 	0.16216216216216
scalar RSUExampleScenario.node[11].appl 	NumberofFN 	0.83783783783784
scalar RSUExampleScenario.node[11].veinsmobility 	startTime 	26.6
scalar RSUExampleScenario.node[11].veinsmobility 	totalTime 	423.4
scalar RSUExampleScenario.node[11].veinsmobility 	stopTime 	450
scalar RSUExampleScenario.node[11].veinsmobility 	minSpeed 	0
scalar RSUExampleScenario.node[11].veinsmobility 	maxSpeed 	13.999930692522
scalar RSUExampleScenario.node[11].veinsmobility 	totalDistance 	2753.4037439541
scalar RSUExampleScenario.node[11].veinsmobility 	totalCO2Emission 	752.48911345586
scalar RSUExampleScenario.node[12].appl 	meanClusterNodes 	9
scalar RSUExampleScenario.node[12].appl 	meanClusterHeadUtility 	35.935816287272
scalar RSUExampleScenario.node[12].appl 	NumberofCH 	0.027027027027027
scalar RSUExampleScenario.node[12].appl 	NumberofON 	0.21621621621622
scalar RSUExampleScenario.node[12].appl 	NumberofFN 	0.75675675675676
scalar RSUExampleScenario.node[12].veinsmobility 	startTime 	29
scalar RSUExampleScenario.node[12].veinsmobility 	totalTime 	421
scalar RSUExampleScenario.node[12].veinsmobility 	stopTime 	450
scalar RSUExampleScenario.node[12].veinsmobility 	minSpeed 	0
scalar RSUExampleScenario.node[12].veinsmobility 	maxSpeed 	13.999899453209
scalar RSUExampleScenario.node[12].veinsmobility 	totalDistance 	2722.3170748463
scalar RSUExampleScenario.node[12].veinsmobility 	totalCO2Emission 	745.36449730203
scalar RSUExampleScenario.node[13].appl 	meanClusterNodes 	1
scalar RSUExampleScenario.node[13].appl 	meanClusterHeadUtility 	31.208363509134
scalar RSUExampleScenario.node[13].appl 	NumberofCH 	0.027027027027027
scalar RSUExampleScenario.node[13].appl 	NumberofON 	0.40540540540541
scalar RSUExampleScenario.node[13].appl 	NumberofFN 	0.56756756756757
scalar RSUExampleScenario.node[13].veinsmobility 	startTime 	31.4
scalar RSUExampleScenario.node[13].veinsmobility 	totalTime 	418.6
scalar RSUExampleScenario.node[13].veinsmobility 	stopTime 	450
scalar RSUExampleScenario.node[13].veinsmobility 	minSpeed 	0
scalar RSUExampleScenario.node[13].veinsmobility 	maxSpeed 	13.999853691801
scalar RSUExampleScenario.node[13].veinsmobility 	totalDistance 	2680.8027244554
scalar RSUExampleScenario.node[13].veinsmobility 	totalCO2Emission 	737.53372369336
scalar RSUExampleScenario.node[14].appl 	meanClusterNodes 	5
scalar RSUExampleScenario.node[14].appl 	meanClusterHeadUtility 	17.056697594943
scalar RSUExampleScenario.node[14].appl 	NumberofCH 	0.054054054054054
scalar RSUExampleScenario.node[14].appl 	NumberofON 	0.45945945945946
scalar RSUExampleScenario.node[14].appl 	NumberofFN 	0.48648648648649
scalar RSUExampleScenario.node[14].veinsmobility 	startTime 	33.8
scalar RSUExampleScenario.node[14].veinsmobility 	totalTime 	416.2
scalar RSUExampleScenario.node[14].veinsmobility 	stopTime 	450
scalar RSUExampleScenario.node[14].veinsmobility 	minSpeed 	0
scalar RSUExampleScenario.node[14].veinsmobility 	maxSpeed 	13.999971209185
scalar RSUExampleScenario.node[14].veinsmobility 	totalDistance 	2651.7855892301
scalar RSUExampleScenario.node[14].veinsmobility 	totalCO2Emission 	732.71401554768
scalar RSUExampleScenario.node[15].appl 	meanClusterNodes 	7
scalar RSUExampleScenario.node[15].appl 	meanClusterHeadUtility 	16.954238430617
scalar RSUExampleScenario.node[15].appl 	NumberofCH 	0.054054054054054
scalar RSUExampleScenario.node[15].appl 	NumberofON 	0.24324324324324
scalar RSUExampleScenario.node[15].appl 	NumberofFN 	0.7027027027027
scalar RSUExampleScenario.node[15].veinsmobility 	startTime 	36.2
scalar RSUExampleScenario.node[15].veinsmobility 	totalTime 	413.8
scalar RSUExampleScenario.node[15].veinsmobility 	stopTime 	450
scalar RSUExampleScenario.node[15].veinsmobility 	minSpeed 	0
scalar RSUExampleScenario.node[15].veinsmobility 	maxSpeed 	13.99986248577
scalar RSUExampleScenario.node[15].veinsmobility 	totalDistance 	2614.4039122817
scalar RSUExampleScenario.node[15].veinsmobility 	totalCO2Emission 	728.32644268226
scalar RSUExampleScenario.node[16].appl 	meanClusterNodes 	8
scalar RSUExampleScenario.node[16].appl 	meanClusterHeadUtility 	17.673831661157
scalar RSUExampleScenario.node[16].appl 	NumberofCH 	0.054054054054054
scalar RSUExampleScenario.node[16].appl 	NumberofON 	0.40540540540541
scalar RSUExampleScenario.node[16].appl 	NumberofFN 	0.54054054054054
scalar RSUExampleScenario.node[16].veinsmobility 	startTime 	38.6
scalar RSUExampleScenario.node[16].veinsmobility 	totalTime 	411.4
scalar RSUExampleScenario.node[16].veinsmobility 	stopTime 	450
scalar RSUExampleScenario.node[16].veinsmobility 	minSpeed 	0
scalar RSUExampleScenario.node[16].veinsmobility 	maxSpeed 	13.999846697869
scalar RSUExampleScenario.node[16].veinsmobility 	totalDistance 	2582.8510847223
scalar RSUExampleScenario.node[16].veinsmobility 	totalCO2Emission 	723.56700178502
scalar RSUExampleScenario.node[17].appl 	meanClusterNodes 	5.75
scalar RSUExampleScenario.node[17].appl 	meanClusterHeadUtility 	8.0466285397957
scalar RSUExampleScenario.node[17].appl 	NumberofCH 	0.10810810810811
scalar RSUExampleScenario.node[17].appl 	NumberofON 	0.43243243243243
scalar RSUExampleScenario.node[17].appl 	NumberofFN 	0.45945945945946
scalar RSUExampleScenario.node[17].veinsmobility 	startTime 	41
scalar RSUExampleScenario.node[17].veinsmobility 	totalTime 	409
scalar RSUExampleScenario.node[17].veinsmobility 	stopTime 	450
scalar RSUExampleScenario.node[17].veinsmobility 	minSpeed 	0
scalar RSUExampleScenario.node[17].veinsmobility 	maxSpeed 	13.999853360881
scalar RSUExampleScenario.node[17].veinsmobility 	totalDistance 	2541.0722840994
scalar RSUExampleScenario.node[17].veinsmobility 	totalCO2Emission 	715.20629365454
scalar RSUExampleScenario.node[18].appl 	meanClusterNodes 	0
scalar RSUExampleScenario.node[18].appl 	meanClusterHeadUtility 	0
scalar RSUExampleScenario.node[18].appl 	NumberofCH 	0.054054054054054
scalar RSUExampleScenario.node[18].appl 	NumberofON 	0.24324324324324
scalar RSUExampleScenario.node[18].appl 	NumberofFN 	0.7027027027027
scalar RSUExampleScenario.node[18].veinsmobility 	startTime 	43.4
scalar RSUExampleScenario.node[18].veinsmobility 	totalTime 	406.6
scalar RSUExampleScenario.node[18].veinsmobility 	stopTime 	450
scalar RSUExampleScenario.node[18].veinsmobility 	minSpeed 	0
scalar RSUExampleScenario.node[18].veinsmobility 	maxSpeed 	13.999988327909
scalar RSUExampleScenario.node[18].veinsmobility 	totalDistance 	2509.7683846841
scalar RSUExampleScenario.node[18].veinsmobility 	totalCO2Emission 	716.58859048865
scalar RSUExampleScenario.node[19].appl 	meanClusterNodes 	5.5
scalar RSUExampleScenario.node[19].appl 	meanClusterHeadUtility 	17.000145363378
scalar RSUExampleScenario.node[19].appl 	NumberofCH 	0.054054054054054
scalar RSUExampleScenario.node[19].appl 	NumberofON 	0.48648648648649
scalar RSUExampleScenario.node[19].appl 	NumberofFN 	0.45945945945946
scalar RSUExampleScenario.node[19].veinsmobility 	startTime 	45.8
scalar RSUExampleScenario.node[19].veinsmobility 	totalTime 	404.2
scalar RSUExampleScenario.node[19].veinsmobility 	stopTime 	450
scalar RSUExampleScenario.node[19].veinsmobility 	minSpeed 	0
scalar RSUExampleScenario.node[19].veinsmobility 	maxSpeed 	13.999793035428
scalar RSUExampleScenario.node[19].veinsmobility 	totalDistance 	2472.679647998
scalar RSUExampleScenario.node[19].veinsmobility 	totalCO2Emission 	705.45215805673
scalar RSUExampleScenario.node[2].appl 	meanClusterNodes 	0
scalar RSUExampleScenario.node[2].appl 	meanClusterHeadUtility 	0
scalar RSUExampleScenario.node[2].appl 	NumberofCH 	0
scalar RSUExampleScenario.node[2].appl 	NumberofON 	0.21621621621622
scalar RSUExampleScenario.node[2].appl 	NumberofFN 	0.78378378378378
scalar RSUExampleScenario.node[2].veinsmobility 	startTime 	4.9
scalar RSUExampleScenario.node[2].veinsmobility 	totalTime 	445.1
scalar RSUExampleScenario.node[2].veinsmobility 	stopTime 	450
scalar RSUExampleScenario.node[2].veinsmobility 	minSpeed 	0
scalar RSUExampleScenario.node[2].veinsmobility 	maxSpeed 	13.999900762814
scalar RSUExampleScenario.node[2].veinsmobility 	totalDistance 	3038.8146681021
scalar RSUExampleScenario.node[2].veinsmobility 	totalCO2Emission 	821.63977113905
scalar RSUExampleScenario.node[20].appl 	meanClusterNodes 	8
scalar RSUExampleScenario.node[20].appl 	meanClusterHeadUtility 	18.195718108757
scalar RSUExampleScenario.node[20].appl 	NumberofCH 	0.054054054054054
scalar RSUExampleScenario.node[20].appl 	NumberofON 	0.51351351351351
scalar RSUExampleScenario.node[20].appl 	NumberofFN 	0.43243243243243
scalar RSUExampleScenario.node[20].veinsmobility 	startTime 	48.3
scalar RSUExampleScenario.node[20].veinsmobility 	totalTime 	401.7
scalar RSUExampleScenario.node[20].veinsmobility 	stopTime 	450
scalar RSUExampleScenario.node[20].veinsmobility 	minSpeed 	0
scalar RSUExampleScenario.node[20].veinsmobility 	maxSpeed 	13.999703385353
scalar RSUExampleScenario.node[20].veinsmobility 	totalDistance 	2441.7559787973
scalar RSUExampleScenario.node[20].veinsmobility 	totalCO2Emission 	703.42247524254
scalar RSUExampleScenario.node[21].appl 	meanClusterNodes 	3
scalar RSUExampleScenario.node[21].appl 	meanClusterHeadUtility 	17.759245675393
scalar RSUExampleScenario.node[21].appl 	NumberofCH 	0.054054054054054
scalar RSUExampleScenario.node[21].appl 	NumberofON 	0.32432432432432
scalar RSUExampleScenario.node[21].appl 	NumberofFN 	0.62162162162162
scalar RSUExampleScenario.node[21].veinsmobility 	startTime 	50.7
scalar RSUExampleScenario.node[21].veinsmobility 	totalTime 	399.3
scalar RSUExampleScenario.node[21].veinsmobility 	stopTime 	450
scalar RSUExampleScenario.node[21].veinsmobility 	minSpeed 	0
scalar RSUExampleScenario.node[21].veinsmobility 	maxSpeed 	13.999920284573
scalar RSUExampleScenario.node[21].veinsmobility 	totalDistance 	2403.6505707133
scalar RSUExampleScenario.node[21].veinsmobility 	totalCO2Emission 	693.51376777701
scalar RSUExampleScenario.node[22].appl 	meanClusterNodes 	4.5
scalar RSUExampleScenario.node[22].appl 	meanClusterHeadUtility 	16.140348694315
scalar RSUExampleScenario.node[22].appl 	NumberofCH 	0.054054054054054
scalar RSUExampleScenario.node[22].appl 	NumberofON 	0.32432432432432
scalar RSUExampleScenario.node[22].appl 	NumberofFN 	0.62162162162162
scalar RSUExampleScenario.node[22].veinsmobility 	startTime 	53.1
scalar RSUExampleScenario.node[22].veinsmobility 	totalTime 	396.9
scalar RSUExampleScenario.node[22].veinsmobility 	stopTime 	450
scalar RSUExampleScenario.node[22].veinsmobility 	minSpeed 	0
scalar RSUExampleScenario.node[22].veinsmobility 	maxSpeed 	13.999956231164
scalar RSUExampleScenario.node[22].veinsmobility 	totalDistance 	2374.8806820815
scalar RSUExampleScenario.node[22].veinsmobility 	totalCO2Emission 	691.8721946921
scalar RSUExampleScenario.node[23].appl 	meanClusterNodes 	4
scalar RSUExampleScenario.node[23].appl 	meanClusterHeadUtility 	16.455038727904
scalar RSUExampleScenario.node[23].appl 	NumberofCH 	0.054054054054054
scalar RSUExampleScenario.node[23].appl 	NumberofON 	0.54054054054054
scalar RSUExampleScenario.node[23].appl 	NumberofFN 	0.40540540540541
scalar RSUExampleScenario.node[23].veinsmobility 	startTime 	55.5
scalar RSUExampleScenario.node[23].veinsmobility 	totalTime 	394.5
scalar RSUExampleScenario.node[23].veinsmobility 	stopTime 	450
scalar RSUExampleScenario.node[23].veinsmobility 	minSpeed 	0
scalar RSUExampleScenario.node[23].veinsmobility 	maxSpeed 	13.999945221457
scalar RSUExampleScenario.node[23].veinsmobility 	totalDistance 	2334.167169063
scalar RSUExampleScenario.node[23].veinsmobility 	totalCO2Emission 	685.94514966179
scalar RSUExampleScenario.node[24].appl 	meanClusterNodes 	9
scalar RSUExampleScenario.node[24].appl 	meanClusterHeadUtility 	16.393089407294
scalar RSUExampleScenario.node[24].appl 	NumberofCH 	0.054054054054054
scalar RSUExampleScenario.node[24].appl 	NumberofON 	0.24324324324324
scalar RSUExampleScenario.node[24].appl 	NumberofFN 	0.7027027027027
scalar RSUExampleScenario.node[24].veinsmobility 	startTime 	57.9
scalar RSUExampleScenario.node[24].veinsmobility 	totalTime 	392.1
scalar RSUExampleScenario.node[24].veinsmobility 	stopTime 	450
scalar RSUExampleScenario.node[24].veinsmobility 	minSpeed 	0
scalar RSUExampleScenario.node[24].veinsmobility 	maxSpeed 	13.999997442719
scalar RSUExampleScenario.node[24].veinsmobility 	totalDistance 	2305.5610565941
scalar RSUExampleScenario.node[24].veinsmobility 	totalCO2Emission 	677.79237445047
scalar RSUExampleScenario.node[25].appl 	meanClusterNodes 	4
scalar RSUExampleScenario.node[25].appl 	meanClusterHeadUtility 	17.668568436547
scalar RSUExampleScenario.node[25].appl 	NumberofCH 	0.054054054054054
scalar RSUExampleScenario.node[25].appl 	NumberofON 	0.62162162162162
scalar RSUExampleScenario.node[25].appl 	NumberofFN 	0.32432432432432
scalar RSUExampleScenario.node[25].veinsmobility 	startTime 	60.3
scalar RSUExampleScenario.node[25].veinsmobility 	totalTime 	389.7
scalar RSUExampleScenario.node[25].veinsmobility 	stopTime 	450
scalar RSUExampleScenario.node[25].veinsmobility 	minSpeed 	0
scalar RSUExampleScenario.node[25].veinsmobility 	maxSpeed 	13.999997824489
scalar RSUExampleScenario.node[25].veinsmobility 	totalDistance 	2269.3002477416
scalar RSUExampleScenario.node[25].veinsmobility 	totalCO2Emission 	668.78466061564
scalar RSUExampleScenario.node[26].appl 	meanClusterNodes 	6.5
scalar RSUExampleScenario.node[26].appl 	meanClusterHeadUtility 	19.262883479017
scalar RSUExampleScenario.node[26].appl 	NumberofCH 	0.054054054054054
scalar RSUExampleScenario.node[26].appl 	NumberofON 	0.48648648648649
scalar RSUExampleScenario.node[26].appl 	NumberofFN 	0.45945945945946
scalar RSUExampleScenario.node[26].veinsmobility 	startTime 	62.7
scalar RSUExampleScenario.node[26].veinsmobility 	totalTime 	387.3
scalar RSUExampleScenario.node[26].veinsmobility 	stopTime 	450
scalar RSUExampleScenario.node[26].veinsmobility 	minSpeed 	0
scalar RSUExampleScenario.node[26].veinsmobility 	maxSpeed 	13.999992715374
scalar RSUExampleScenario.node[26].veinsmobility 	totalDistance 	2239.1519812447
scalar RSUExampleScenario.node[26].veinsmobility 	totalCO2Emission 	665.64349625868
scalar RSUExampleScenario.node[27].appl 	meanClusterNodes 	0
scalar RSUExampleScenario.node[27].appl 	meanClusterHeadUtility 	0
scalar RSUExampleScenario.node[27].appl 	NumberofCH 	0
scalar RSUExampleScenario.node[27].appl 	NumberofON 	0.56756756756757
scalar RSUExampleScenario.node[27].appl 	NumberofFN 	0.43243243243243
scalar RSUExampleScenario.node[27].veinsmobility 	startTime 	65.1
scalar RSUExampleScenario.node[27].veinsmobility 	totalTime 	384.9
scalar RSUExampleScenario.node[27].veinsmobility 	stopTime 	450
scalar RSUExampleScenario.node[27].veinsmobility 	minSpeed 	0
scalar RSUExampleScenario.node[27].veinsmobility 	maxSpeed 	13.999917930844
scalar RSUExampleScenario.node[27].veinsmobility 	totalDistance 	2200.2184825548
scalar RSUExampleScenario.node[27].veinsmobility 	totalCO2Emission 	659.11626356113
scalar RSUExampleScenario.node[28].appl 	meanClusterNodes 	10
scalar RSUExampleScenario.node[28].appl 	meanClusterHeadUtility 	18.227898159445
scalar RSUExampleScenario.node[28].appl 	NumberofCH 	0.054054054054054
scalar RSUExampleScenario.node[28].appl 	NumberofON 	0.24324324324324
scalar RSUExampleScenario.node[28].appl 	NumberofFN 	0.7027027027027
scalar RSUExampleScenario.node[28].veinsmobility 	startTime 	67.5
scalar RSUExampleScenario.node[28].veinsmobility 	totalTime 	382.5
scalar RSUExampleScenario.node[28].veinsmobility 	stopTime 	450
scalar RSUExampleScenario.node[28].veinsmobility 	minSpeed 	0
scalar RSUExampleScenario.node[28].veinsmobility 	maxSpeed 	13.999829835726
scalar RSUExampleScenario.node[28].veinsmobility 	totalDistance 	2169.4783105209
scalar RSUExampleScenario.node[28].veinsmobility 	totalCO2Emission 	657.12524042724
scalar RSUExampleScenario.node[29].appl 	meanClusterNodes 	6.75
scalar RSUExampleScenario.node[29].appl 	meanClusterHeadUtility 	8.4470809870042
scalar RSUExampleScenario.node[29].appl 	NumberofCH 	0.10810810810811
scalar RSUExampleScenario.node[29].appl 	NumberofON 	0.24324324324324
scalar RSUExampleScenario.node[29].appl 	NumberofFN 	0.64864864864865
scalar RSUExampleScenario.node[29].veinsmobility 	startTime 	69.9
scalar RSUExampleScenario.node[29].veinsmobility 	totalTime 	380.1
scalar RSUExampleScenario.node[29].veinsmobility 	stopTime 	450
scalar RSUExampleScenario.node[29].veinsmobility 	minSpeed 	0
scalar RSUExampleScenario.node[29].veinsmobility 	maxSpeed 	13.999975789608
scalar RSUExampleScenario.node[29].veinsmobility 	totalDistance 	2134.0015842735
scalar RSUExampleScenario.node[29].veinsmobility 	totalCO2Emission 	650.208122944
scalar RSUExampleScenario.node[3].appl 	meanClusterNodes 	7.5
scalar RSUExampleScenario.node[3].appl 	meanClusterHeadUtility 	18.181220984788
scalar RSUExampleScenario.node[3].appl 	NumberofCH 	0.054054054054054
scalar RSUExampleScenario.node[3].appl 	NumberofON 	0.2972972972973
scalar RSUExampleScenario.node[3].appl 	NumberofFN 	0.64864864864865
scalar RSUExampleScenario.node[3].veinsmobility 	startTime 	7.3
scalar RSUExampleScenario.node[3].veinsmobility 	totalTime 	442.7
scalar RSUExampleScenario.node[3].veinsmobility 	stopTime 	450
scalar RSUExampleScenario.node[3].veinsmobility 	minSpeed 	0
scalar RSUExampleScenario.node[3].veinsmobility 	maxSpeed 	13.999911147335
scalar RSUExampleScenario.node[3].veinsmobility 	totalDistance 	2992.8880258394
scalar RSUExampleScenario.node[3].veinsmobility 	totalCO2Emission 	813.45950821907
scalar RSUExampleScenario.node[30].appl 	meanClusterNodes 	4.5
scalar RSUExampleScenario.node[30].appl 	meanClusterHeadUtility 	18.18995068773
scalar RSUExampleScenario.node[30].appl 	NumberofCH 	0.054054054054054
scalar RSUExampleScenario.node[30].appl 	NumberofON 	0.56756756756757
scalar RSUExampleScenario.node[30].appl 	NumberofFN 	0.37837837837838
scalar RSUExampleScenario.node[30].veinsmobility 	startTime 	72.4
scalar RSUExampleScenario.node[30].veinsmobility 	totalTime 	377.6
scalar RSUExampleScenario.node[30].veinsmobility 	stopTime 	450
scalar RSUExampleScenario.node[30].veinsmobility 	minSpeed 	0
scalar RSUExampleScenario.node[30].veinsmobility 	maxSpeed 	13.999765275691
scalar RSUExampleScenario.node[30].veinsmobility 	totalDistance 	2102.0685197523
scalar RSUExampleScenario.node[30].veinsmobility 	totalCO2Emission 	641.8243140758
scalar RSUExampleScenario.node[31].appl 	meanClusterNodes 	1
scalar RSUExampleScenario.node[31].appl 	meanClusterHeadUtility 	36.818051818871
scalar RSUExampleScenario.node[31].appl 	NumberofCH 	0.027027027027027
scalar RSUExampleScenario.node[31].appl 	NumberofON 	0.67567567567568
scalar RSUExampleScenario.node[31].appl 	NumberofFN 	0.2972972972973
scalar RSUExampleScenario.node[31].veinsmobility 	startTime 	74.8
scalar RSUExampleScenario.node[31].veinsmobility 	totalTime 	375.2
scalar RSUExampleScenario.node[31].veinsmobility 	stopTime 	450
scalar RSUExampleScenario.node[31].veinsmobility 	minSpeed 	0
scalar RSUExampleScenario.node[31].veinsmobility 	maxSpeed 	13.999870726077
scalar RSUExampleScenario.node[31].veinsmobility 	totalDistance 	2066.8665249491
scalar RSUExampleScenario.node[31].veinsmobility 	totalCO2Emission 	636.73215643519
scalar RSUExampleScenario.node[32].appl 	meanClusterNodes 	0
scalar RSUExampleScenario.node[32].appl 	meanClusterHeadUtility 	0
scalar RSUExampleScenario.node[32].appl 	NumberofCH 	0
scalar RSUExampleScenario.node[32].appl 	NumberofON 	0.45945945945946
scalar RSUExampleScenario.node[32].appl 	NumberofFN 	0.54054054054054
scalar RSUExampleScenario.node[32].veinsmobility 	startTime 	77.2
scalar RSUExampleScenario.node[32].veinsmobility 	totalTime 	372.8
scalar RSUExampleScenario.node[32].veinsmobility 	stopTime 	450
scalar RSUExampleScenario.node[32].veinsmobility 	minSpeed 	0
scalar RSUExampleScenario.node[32].veinsmobility 	maxSpeed 	13.999992130385
scalar RSUExampleScenario.node[32].veinsmobility 	totalDistance 	2033.3723483587
scalar RSUExampleScenario.node[32].veinsmobility 	totalCO2Emission 	631.44720883371
scalar RSUExampleScenario.node[33].appl 	meanClusterNodes 	6
scalar RSUExampleScenario.node[33].appl 	meanClusterHeadUtility 	18.801260962658
scalar RSUExampleScenario.node[33].appl 	NumberofCH 	0.054054054054054
scalar RSUExampleScenario.node[33].appl 	NumberofON 	0.54054054054054
scalar RSUExampleScenario.node[33].appl 	NumberofFN 	0.40540540540541
scalar RSUExampleScenario.node[33].veinsmobility 	startTime 	79.6
scalar RSUExampleScenario.node[33].veinsmobility 	totalTime 	370.4
scalar RSUExampleScenario.node[33].veinsmobility 	stopTime 	450
scalar RSUExampleScenario.node[33].veinsmobility 	minSpeed 	0
scalar RSUExampleScenario.node[33].veinsmobility 	maxSpeed 	13.999995281009
scalar RSUExampleScenario.node[33].veinsmobility 	totalDistance 	1997.1836032544
scalar RSUExampleScenario.node[33].veinsmobility 	totalCO2Emission 	629.19628571409
scalar RSUExampleScenario.node[34].appl 	meanClusterNodes 	0
scalar RSUExampleScenario.node[34].appl 	meanClusterHeadUtility 	0
scalar RSUExampleScenario.node[34].appl 	NumberofCH 	0
scalar RSUExampleScenario.node[34].appl 	NumberofON 	0.48648648648649
scalar RSUExampleScenario.node[34].appl 	NumberofFN 	0.51351351351351
scalar RSUExampleScenario.node[34].veinsmobility 	startTime 	82
scalar RSUExampleScenario.node[34].veinsmobility 	totalTime 	368
scalar RSUExampleScenario.node[34].veinsmobility 	stopTime 	450
scalar RSUExampleScenario.node[34].veinsmobility 	minSpeed 	0
scalar RSUExampleScenario.node[34].veinsmobility 	maxSpeed 	13.999976908737
scalar RSUExampleScenario.node[34].veinsmobility 	totalDistance 	1965.3496528701
scalar RSUExampleScenario.node[34].veinsmobility 	totalCO2Emission 	620.42469939588
scalar RSUExampleScenario.node[35].appl 	meanClusterNodes 	7.5
scalar RSUExampleScenario.node[35].appl 	meanClusterHeadUtility 	8.6948474987472
scalar RSUExampleScenario.node[35].appl 	NumberofCH 	0.10810810810811
scalar RSUExampleScenario.node[35].appl 	NumberofON 	0.35135135135135
scalar RSUExampleScenario.node[35].appl 	NumberofFN 	0.54054054054054
scalar RSUExampleScenario.node[35].veinsmobility 	startTime 	84.4
scalar RSUExampleScenario.node[35].veinsmobility 	totalTime 	365.6
scalar RSUExampleScenario.node[35].veinsmobility 	stopTime 	450
scalar RSUExampleScenario.node[35].veinsmobility 	minSpeed 	0
scalar RSUExampleScenario.node[35].veinsmobility 	maxSpeed 	13.999867803189
scalar RSUExampleScenario.node[35].veinsmobility 	totalDistance 	1930.7818998479
scalar RSUExampleScenario.node[35].veinsmobility 	totalCO2Emission 	614.85277244334
scalar RSUExampleScenario.node[36].appl 	meanClusterNodes 	0
scalar RSUExampleScenario.node[36].appl 	meanClusterHeadUtility 	0
scalar RSUExampleScenario.node[36].appl 	NumberofCH 	0
scalar RSUExampleScenario.node[36].appl 	NumberofON 	0.62162162162162
scalar RSUExampleScenario.node[36].appl 	NumberofFN 	0.37837837837838
scalar RSUExampleScenario.node[36].veinsmobility 	startTime 	86.8
scalar RSUExampleScenario.node[36].veinsmobility 	totalTime 	363.2
scalar RSUExampleScenario.node[36].veinsmobility 	stopTime 	450
scalar RSUExampleScenario.node[36].veinsmobility 	minSpeed 	0
scalar RSUExampleScenario.node[36].veinsmobility 	maxSpeed 	13.999909927596
scalar RSUExampleScenario.node[36].veinsmobility 	totalDistance 	1898.5336879517
scalar RSUExampleScenario.node[36].veinsmobility 	totalCO2Emission 	610.48228445561
scalar RSUExampleScenario.node[37].appl 	meanClusterNodes 	9
scalar RSUExampleScenario.node[37].appl 	meanClusterHeadUtility 	8.3795481797217
scalar RSUExampleScenario.node[37].appl 	NumberofCH 	0.10810810810811
scalar RSUExampleScenario.node[37].appl 	NumberofON 	0.51351351351351
scalar RSUExampleScenario.node[37].appl 	NumberofFN 	0.37837837837838
scalar RSUExampleScenario.node[37].veinsmobility 	startTime 	89.2
scalar RSUExampleScenario.node[37].veinsmobility 	totalTime 	360.8
scalar RSUExampleScenario.node[37].veinsmobility 	stopTime 	450
scalar RSUExampleScenario.node[37].veinsmobility 	minSpeed 	0
scalar RSUExampleScenario.node[37].veinsmobility 	maxSpeed 	13.999789366676
scalar RSUExampleScenario.node[37].veinsmobility 	totalDistance 	1864.3370283737
scalar RSUExampleScenario.node[37].veinsmobility 	totalCO2Emission 	604.14434308374
scalar RSUExampleScenario.node[38].appl 	meanClusterNodes 	11.5
scalar RSUExampleScenario.node[38].appl 	meanClusterHeadUtility 	17.453357647904
scalar RSUExampleScenario.node[38].appl 	NumberofCH 	0.054054054054054
scalar RSUExampleScenario.node[38].appl 	NumberofON 	0.43243243243243
scalar RSUExampleScenario.node[38].appl 	NumberofFN 	0.51351351351351
scalar RSUExampleScenario.node[38].veinsmobility 	startTime 	91.6
scalar RSUExampleScenario.node[38].veinsmobility 	totalTime 	358.4
scalar RSUExampleScenario.node[38].veinsmobility 	stopTime 	450
scalar RSUExampleScenario.node[38].veinsmobility 	minSpeed 	0
scalar RSUExampleScenario.node[38].veinsmobility 	maxSpeed 	13.999904309071
scalar RSUExampleScenario.node[38].veinsmobility 	totalDistance 	1830.6408656077
scalar RSUExampleScenario.node[38].veinsmobility 	totalCO2Emission 	597.10123727215
scalar RSUExampleScenario.node[39].appl 	meanClusterNodes 	8.5
scalar RSUExampleScenario.node[39].appl 	meanClusterHeadUtility 	17.027930495573
scalar RSUExampleScenario.node[39].appl 	NumberofCH 	0.054054054054054
scalar RSUExampleScenario.node[39].appl 	NumberofON 	0.56756756756757
scalar RSUExampleScenario.node[39].appl 	NumberofFN 	0.37837837837838
scalar RSUExampleScenario.node[39].veinsmobility 	startTime 	94
scalar RSUExampleScenario.node[39].veinsmobility 	totalTime 	356
scalar RSUExampleScenario.node[39].veinsmobility 	stopTime 	450
scalar RSUExampleScenario.node[39].veinsmobility 	minSpeed 	0
scalar RSUExampleScenario.node[39].veinsmobility 	maxSpeed 	13.999811609315
scalar RSUExampleScenario.node[39].veinsmobility 	totalDistance 	1797.9752357509
scalar RSUExampleScenario.node[39].veinsmobility 	totalCO2Emission 	590.52001756796
scalar RSUExampleScenario.node[4].appl 	meanClusterNodes 	6
scalar RSUExampleScenario.node[4].appl 	meanClusterHeadUtility 	17.509349895495
scalar RSUExampleScenario.node[4].appl 	NumberofCH 	0.054054054054054
scalar RSUExampleScenario.node[4].appl 	NumberofON 	0.2972972972973
scalar RSUExampleScenario.node[4].appl 	NumberofFN 	0.64864864864865
scalar RSUExampleScenario.node[4].veinsmobility 	startTime 	9.7
scalar RSUExampleScenario.node[4].veinsmobility 	totalTime 	440.3
scalar RSUExampleScenario.node[4].veinsmobility 	stopTime 	450
scalar RSUExampleScenario.node[4].veinsmobility 	minSpeed 	0
scalar RSUExampleScenario.node[4].veinsmobility 	maxSpeed 	13.999966809158
scalar RSUExampleScenario.node[4].veinsmobility 	totalDistance 	2950.6125716032
scalar RSUExampleScenario.node[4].veinsmobility 	totalCO2Emission 	798.55991975361
scalar RSUExampleScenario.node[40].appl 	meanClusterNodes 	4.25
scalar RSUExampleScenario.node[40].appl 	meanClusterHeadUtility 	7.6186610678408
scalar RSUExampleScenario.node[40].appl 	NumberofCH 	0.10810810810811
scalar RSUExampleScenario.node[40].appl 	NumberofON 	0.72972972972973
scalar RSUExampleScenario.node[40].appl 	NumberofFN 	0.16216216216216
scalar RSUExampleScenario.node[40].veinsmobility 	startTime 	96.5
scalar RSUExampleScenario.node[40].veinsmobility 	totalTime 	353.5
scalar RSUExampleScenario.node[40].veinsmobility 	stopTime 	450
scalar RSUExampleScenario.node[40].veinsmobility 	minSpeed 	0
scalar RSUExampleScenario.node[40].veinsmobility 	maxSpeed 	13.999954493146
scalar RSUExampleScenario.node[40].veinsmobility 	totalDistance 	1763.6096343039
scalar RSUExampleScenario.node[40].veinsmobility 	totalCO2Emission 	584.65996744526
scalar RSUExampleScenario.node[41].appl 	meanClusterNodes 	10.5
scalar RSUExampleScenario.node[41].appl 	meanClusterHeadUtility 	17.105831536336
scalar RSUExampleScenario.node[41].appl 	NumberofCH 	0.054054054054054
scalar RSUExampleScenario.node[41].appl 	NumberofON 	0.37837837837838
scalar RSUExampleScenario.node[41].appl 	NumberofFN 	0.56756756756757
scalar RSUExampleScenario.node[41].veinsmobility 	startTime 	98.9
scalar RSUExampleScenario.node[41].veinsmobility 	totalTime 	351.1
scalar RSUExampleScenario.node[41].veinsmobility 	stopTime 	450
scalar RSUExampleScenario.node[41].veinsmobility 	minSpeed 	0
scalar RSUExampleScenario.node[41].veinsmobility 	maxSpeed 	13.999909695259
scalar RSUExampleScenario.node[41].veinsmobility 	totalDistance 	1730.760556765
scalar RSUExampleScenario.node[41].veinsmobility 	totalCO2Emission 	581.4203886484
scalar RSUExampleScenario.node[42].appl 	meanClusterNodes 	9.5
scalar RSUExampleScenario.node[42].appl 	meanClusterHeadUtility 	17.264061997969
scalar RSUExampleScenario.node[42].appl 	NumberofCH 	0.054054054054054
scalar RSUExampleScenario.node[42].appl 	NumberofON 	0.40540540540541
scalar RSUExampleScenario.node[42].appl 	NumberofFN 	0.54054054054054
scalar RSUExampleScenario.node[42].veinsmobility 	startTime 	101.3
scalar RSUExampleScenario.node[42].veinsmobility 	totalTime 	348.7
scalar RSUExampleScenario.node[42].veinsmobility 	stopTime 	450
scalar RSUExampleScenario.node[42].veinsmobility 	minSpeed 	0
scalar RSUExampleScenario.node[42].veinsmobility 	maxSpeed 	13.99996283927
scalar RSUExampleScenario.node[42].veinsmobility 	totalDistance 	1696.661784674
scalar RSUExampleScenario.node[42].veinsmobility 	totalCO2Emission 	577.06278998402
scalar RSUExampleScenario.node[43].appl 	meanClusterNodes 	0
scalar RSUExampleScenario.node[43].appl 	meanClusterHeadUtility 	0
scalar RSUExampleScenario.node[43].appl 	NumberofCH 	0
scalar RSUExampleScenario.node[43].appl 	NumberofON 	0.32432432432432
scalar RSUExampleScenario.node[43].appl 	NumberofFN 	0.67567567567568
scalar RSUExampleScenario.node[43].veinsmobility 	startTime 	103.7
scalar RSUExampleScenario.node[43].veinsmobility 	totalTime 	346.3
scalar RSUExampleScenario.node[43].veinsmobility 	stopTime 	450
scalar RSUExampleScenario.node[43].veinsmobility 	minSpeed 	0
scalar RSUExampleScenario.node[43].veinsmobility 	maxSpeed 	13.99985299936
scalar RSUExampleScenario.node[43].veinsmobility 	totalDistance 	1660.8353793704
scalar RSUExampleScenario.node[43].veinsmobility 	totalCO2Emission 	567.78630418466
scalar RSUExampleScenario.node[44].appl 	meanClusterNodes 	6.5
scalar RSUExampleScenario.node[44].appl 	meanClusterHeadUtility 	8.4543939473492
scalar RSUExampleScenario.node[44].appl 	NumberofCH 	0.10810810810811
scalar RSUExampleScenario.node[44].appl 	NumberofON 	0.62162162162162
scalar RSUExampleScenario.node[44].appl 	NumberofFN 	0.27027027027027
scalar RSUExampleScenario.node[44].veinsmobility 	startTime 	106.1
scalar RSUExampleScenario.node[44].veinsmobility 	totalTime 	343.9
scalar RSUExampleScenario.node[44].veinsmobility 	stopTime 	450
scalar RSUExampleScenario.node[44].veinsmobility 	minSpeed 	0
scalar RSUExampleScenario.node[44].veinsmobility 	maxSpeed 	13.999989184372
scalar RSUExampleScenario.node[44].veinsmobility 	totalDistance 	1628.0980074425
scalar RSUExampleScenario.node[44].veinsmobility 	totalCO2Emission 	566.2624366989
scalar RSUExampleScenario.node[45].appl 	meanClusterNodes 	7.5
scalar RSUExampleScenario.node[45].appl 	meanClusterHeadUtility 	8.4196916124912
scalar RSUExampleScenario.node[45].appl 	NumberofCH 	0.10810810810811
scalar RSUExampleScenario.node[45].appl 	NumberofON 	0.45945945945946
scalar RSUExampleScenario.node[45].appl 	NumberofFN 	0.43243243243243
scalar RSUExampleScenario.node[45].veinsmobility 	startTime 	108.5
scalar RSUExampleScenario.node[45].veinsmobility 	totalTime 	341.5
scalar RSUExampleScenario.node[45].veinsmobility 	stopTime 	450
scalar RSUExampleScenario.node[45].veinsmobility 	minSpeed 	0
scalar RSUExampleScenario.node[45].veinsmobility 	maxSpeed 	13.99997682886
scalar RSUExampleScenario.node[45].veinsmobility 	totalDistance 	1595.7977977559
scalar RSUExampleScenario.node[45].veinsmobility 	totalCO2Emission 	559.32693989301
scalar RSUExampleScenario.node[46].appl 	meanClusterNodes 	0
scalar RSUExampleScenario.node[46].appl 	meanClusterHeadUtility 	0
scalar RSUExampleScenario.node[46].appl 	NumberofCH 	0
scalar RSUExampleScenario.node[46].appl 	NumberofON 	0.62162162162162
scalar RSUExampleScenario.node[46].appl 	NumberofFN 	0.37837837837838
scalar RSUExampleScenario.node[46].veinsmobility 	startTime 	110.9
scalar RSUExampleScenario.node[46].veinsmobility 	totalTime 	339.1
scalar RSUExampleScenario.node[46].veinsmobility 	stopTime 	450
scalar RSUExampleScenario.node[46].veinsmobility 	minSpeed 	0
scalar RSUExampleScenario.node[46].veinsmobility 	maxSpeed 	13.999902510548
scalar RSUExampleScenario.node[46].veinsmobility 	totalDistance 	1562.0293188678
scalar RSUExampleScenario.node[46].veinsmobility 	totalCO2Emission 	552.67998135283
scalar RSUExampleScenario.node[47].appl 	meanClusterNodes 	0
scalar RSUExampleScenario.node[47].appl 	meanClusterHeadUtility 	0
scalar RSUExampleScenario.node[47].appl 	NumberofCH 	0
scalar RSUExampleScenario.node[47].appl 	NumberofON 	0.59459459459459
scalar RSUExampleScenario.node[47].appl 	NumberofFN 	0.40540540540541
scalar RSUExampleScenario.node[47].veinsmobility 	startTime 	113.3
scalar RSUExampleScenario.node[47].veinsmobility 	totalTime 	336.7
scalar RSUExampleScenario.node[47].veinsmobility 	stopTime 	450
scalar RSUExampleScenario.node[47].veinsmobility 	minSpeed 	0
scalar RSUExampleScenario.node[47].veinsmobility 	maxSpeed 	13.999875806831
scalar RSUExampleScenario.node[47].veinsmobility 	totalDistance 	1527.4647534078
scalar RSUExampleScenario.node[47].veinsmobility 	totalCO2Emission 	547.95843573445
scalar RSUExampleScenario.node[48].appl 	meanClusterNodes 	2
scalar RSUExampleScenario.node[48].appl 	meanClusterHeadUtility 	35.24881322648
scalar RSUExampleScenario.node[48].appl 	NumberofCH 	0.027027027027027
scalar RSUExampleScenario.node[48].appl 	NumberofON 	0.56756756756757
scalar RSUExampleScenario.node[48].appl 	NumberofFN 	0.40540540540541
scalar RSUExampleScenario.node[48].veinsmobility 	startTime 	115.7
scalar RSUExampleScenario.node[48].veinsmobility 	totalTime 	334.3
scalar RSUExampleScenario.node[48].veinsmobility 	stopTime 	450
scalar RSUExampleScenario.node[48].veinsmobility 	minSpeed 	0
scalar RSUExampleScenario.node[48].veinsmobility 	maxSpeed 	13.999734776763
scalar RSUExampleScenario.node[48].veinsmobility 	totalDistance 	1494.8662803176
scalar RSUExampleScenario.node[48].veinsmobility 	totalCO2Emission 	543.95535661174
scalar RSUExampleScenario.node[49].appl 	meanClusterNodes 	3
scalar RSUExampleScenario.node[49].appl 	meanClusterHeadUtility 	17.615569266478
scalar RSUExampleScenario.node[49].appl 	NumberofCH 	0.054054054054054
scalar RSUExampleScenario.node[49].appl 	NumberofON 	0.48648648648649
scalar RSUExampleScenario.node[49].appl 	NumberofFN 	0.45945945945946
scalar RSUExampleScenario.node[49].veinsmobility 	startTime 	118.1
scalar RSUExampleScenario.node[49].veinsmobility 	totalTime 	331.9
scalar RSUExampleScenario.node[49].veinsmobility 	stopTime 	450
scalar RSUExampleScenario.node[49].veinsmobility 	minSpeed 	0
scalar RSUExampleScenario.node[49].veinsmobility 	maxSpeed 	13.999911176846
scalar RSUExampleScenario.node[49].veinsmobility 	totalDistance 	1462.8210033459
scalar RSUExampleScenario.node[49].veinsmobility 	totalCO2Emission 	536.73421792731
scalar RSUExampleScenario.node[5].appl 	meanClusterNodes 	0
scalar RSUExampleScenario.node[5].appl 	meanClusterHeadUtility 	0
scalar RSUExampleScenario.node[5].appl 	NumberofCH 	0
scalar RSUExampleScenario.node[5].appl 	NumberofON 	0.27027027027027
scalar RSUExampleScenario.node[5].appl 	NumberofFN 	0.72972972972973
scalar RSUExampleScenario.node[5].veinsmobility 	startTime 	12.1
scalar RSUExampleScenario.node[5].veinsmobility 	totalTime 	437.9
scalar RSUExampleScenario.node[5].veinsmobility 	stopTime 	450
scalar RSUExampleScenario.node[5].veinsmobility 	minSpeed 	0
scalar RSUExampleScenario.node[5].veinsmobility 	maxSpeed 	13.999772716833
scalar RSUExampleScenario.node[5].veinsmobility 	totalDistance 	2913.78514218
scalar RSUExampleScenario.node[5].veinsmobility 	totalCO2Emission 	782.23748297893
scalar RSUExampleScenario.node[50].appl 	meanClusterNodes 	0
scalar RSUExampleScenario.node[50].appl 	meanClusterHeadUtility 	0
scalar RSUExampleScenario.node[50].appl 	NumberofCH 	0
scalar RSUExampleScenario.node[50].appl 	NumberofON 	0.54054054054054
scalar RSUExampleScenario.node[50].appl 	NumberofFN 	0.45945945945946
scalar RSUExampleScenario.node[50].veinsmobility 	startTime 	120.6
scalar RSUExampleScenario.node[50].veinsmobility 	totalTime 	329.4
scalar RSUExampleScenario.node[50].veinsmobility 	stopTime 	450
scalar RSUExampleScenario.node[50].veinsmobility 	minSpeed 	0
scalar RSUExampleScenario.node[50].veinsmobility 	maxSpeed 	13.999997753298
scalar RSUExampleScenario.node[50].veinsmobility 	totalDistance 	1426.0103915808
scalar RSUExampleScenario.node[50].veinsmobility 	totalCO2Emission 	531.51108254297
scalar RSUExampleScenario.node[51].appl 	meanClusterNodes 	9.5
scalar RSUExampleScenario.node[51].appl 	meanClusterHeadUtility 	17.538217576069
scalar RSUExampleScenario.node[51].appl 	NumberofCH 	0.054054054054054
scalar RSUExampleScenario.node[51].appl 	NumberofON 	0.35135135135135
scalar RSUExampleScenario.node[51].appl 	NumberofFN 	0.59459459459459
scalar RSUExampleScenario.node[51].veinsmobility 	startTime 	123
scalar RSUExampleScenario.node[51].veinsmobility 	totalTime 	327
scalar RSUExampleScenario.node[51].veinsmobility 	stopTime 	450
scalar RSUExampleScenario.node[51].veinsmobility 	minSpeed 	0
scalar RSUExampleScenario.node[51].veinsmobility 	maxSpeed 	13.999931645147
scalar RSUExampleScenario.node[51].veinsmobility 	totalDistance 	1394.8681039063
scalar RSUExampleScenario.node[51].veinsmobility 	totalCO2Emission 	524.72576182824
scalar RSUExampleScenario.node[52].appl 	meanClusterNodes 	5
scalar RSUExampleScenario.node[52].appl 	meanClusterHeadUtility 	7.8474871656677
scalar RSUExampleScenario.node[52].appl 	NumberofCH 	0.10810810810811
scalar RSUExampleScenario.node[52].appl 	NumberofON 	0.51351351351351
scalar RSUExampleScenario.node[52].appl 	NumberofFN 	0.37837837837838
scalar RSUExampleScenario.node[52].veinsmobility 	startTime 	125.4
scalar RSUExampleScenario.node[52].veinsmobility 	totalTime 	324.6
scalar RSUExampleScenario.node[52].veinsmobility 	stopTime 	450
scalar RSUExampleScenario.node[52].veinsmobility 	minSpeed 	0
scalar RSUExampleScenario.node[52].veinsmobility 	maxSpeed 	13.999367125004
scalar RSUExampleScenario.node[52].veinsmobility 	totalDistance 	1361.22351214
scalar RSUExampleScenario.node[52].veinsmobility 	totalCO2Emission 	521.50589172072
scalar RSUExampleScenario.node[53].appl 	meanClusterNodes 	7.5
scalar RSUExampleScenario.node[53].appl 	meanClusterHeadUtility 	8.6102444060483
scalar RSUExampleScenario.node[53].appl 	NumberofCH 	0.10810810810811
scalar RSUExampleScenario.node[53].appl 	NumberofON 	0.45945945945946
scalar RSUExampleScenario.node[53].appl 	NumberofFN 	0.43243243243243
scalar RSUExampleScenario.node[53].veinsmobility 	startTime 	127.8
scalar RSUExampleScenario.node[53].veinsmobility 	totalTime 	322.2
scalar RSUExampleScenario.node[53].veinsmobility 	stopTime 	450
scalar RSUExampleScenario.node[53].veinsmobility 	minSpeed 	0
scalar RSUExampleScenario.node[53].veinsmobility 	maxSpeed 	13.999793012454
scalar RSUExampleScenario.node[53].veinsmobility 	totalDistance 	1328.3727662329
scalar RSUExampleScenario.node[53].veinsmobility 	totalCO2Emission 	513.80176731974
scalar RSUExampleScenario.node[54].appl 	meanClusterNodes 	3
scalar RSUExampleScenario.node[54].appl 	meanClusterHeadUtility 	34.958145008532
scalar RSUExampleScenario.node[54].appl 	NumberofCH 	0.027027027027027
scalar RSUExampleScenario.node[54].appl 	NumberofON 	0.59459459459459
scalar RSUExampleScenario.node[54].appl 	NumberofFN 	0.37837837837838
scalar RSUExampleScenario.node[54].veinsmobility 	startTime 	130.2
scalar RSUExampleScenario.node[54].veinsmobility 	totalTime 	319.8
scalar RSUExampleScenario.node[54].veinsmobility 	stopTime 	450
scalar RSUExampleScenario.node[54].veinsmobility 	minSpeed 	0
scalar RSUExampleScenario.node[54].veinsmobility 	maxSpeed 	13.999888835715
scalar RSUExampleScenario.node[54].veinsmobility 	totalDistance 	1293.4720554447
scalar RSUExampleScenario.node[54].veinsmobility 	totalCO2Emission 	509.10871835443
scalar RSUExampleScenario.node[55].appl 	meanClusterNodes 	3.5
scalar RSUExampleScenario.node[55].appl 	meanClusterHeadUtility 	8.1425504088095
scalar RSUExampleScenario.node[55].appl 	NumberofCH 	0.10810810810811
scalar RSUExampleScenario.node[55].appl 	NumberofON 	0.24324324324324
scalar RSUExampleScenario.node[55].appl 	NumberofFN 	0.64864864864865
scalar RSUExampleScenario.node[55].veinsmobility 	startTime 	132.6
scalar RSUExampleScenario.node[55].veinsmobility 	totalTime 	317.4
scalar RSUExampleScenario.node[55].veinsmobility 	stopTime 	450
scalar RSUExampleScenario.node[55].veinsmobility 	minSpeed 	0
scalar RSUExampleScenario.node[55].veinsmobility 	maxSpeed 	13.999887384849
scalar RSUExampleScenario.node[55].veinsmobility 	totalDistance 	1261.494419015
scalar RSUExampleScenario.node[55].veinsmobility 	totalCO2Emission 	500.67414064185
scalar RSUExampleScenario.node[56].appl 	meanClusterNodes 	7
scalar RSUExampleScenario.node[56].appl 	meanClusterHeadUtility 	19.221421524546
scalar RSUExampleScenario.node[56].appl 	NumberofCH 	0.054054054054054
scalar RSUExampleScenario.node[56].appl 	NumberofON 	0.62162162162162
scalar RSUExampleScenario.node[56].appl 	NumberofFN 	0.32432432432432
scalar RSUExampleScenario.node[56].veinsmobility 	startTime 	135
scalar RSUExampleScenario.node[56].veinsmobility 	totalTime 	315
scalar RSUExampleScenario.node[56].veinsmobility 	stopTime 	450
scalar RSUExampleScenario.node[56].veinsmobility 	minSpeed 	0
scalar RSUExampleScenario.node[56].veinsmobility 	maxSpeed 	13.999936919918
scalar RSUExampleScenario.node[56].veinsmobility 	totalDistance 	1227.6752155218
scalar RSUExampleScenario.node[56].veinsmobility 	totalCO2Emission 	497.69160769952
scalar RSUExampleScenario.node[57].appl 	meanClusterNodes 	0
scalar RSUExampleScenario.node[57].appl 	meanClusterHeadUtility 	0
scalar RSUExampleScenario.node[57].appl 	NumberofCH 	0
scalar RSUExampleScenario.node[57].appl 	NumberofON 	0.35135135135135
scalar RSUExampleScenario.node[57].appl 	NumberofFN 	0.64864864864865
scalar RSUExampleScenario.node[57].veinsmobility 	startTime 	137.4
scalar RSUExampleScenario.node[57].veinsmobility 	totalTime 	312.6
scalar RSUExampleScenario.node[57].veinsmobility 	stopTime 	450
scalar RSUExampleScenario.node[57].veinsmobility 	minSpeed 	0
scalar RSUExampleScenario.node[57].veinsmobility 	maxSpeed 	13.999062377773
scalar RSUExampleScenario.node[57].veinsmobility 	totalDistance 	1194.336570852
scalar RSUExampleScenario.node[57].veinsmobility 	totalCO2Emission 	490.47527856431
scalar RSUExampleScenario.node[58].appl 	meanClusterNodes 	3.5
scalar RSUExampleScenario.node[58].appl 	meanClusterHeadUtility 	8.3537665655351
scalar RSUExampleScenario.node[58].appl 	NumberofCH 	0.10810810810811
scalar RSUExampleScenario.node[58].appl 	NumberofON 	0.62162162162162
scalar RSUExampleScenario.node[58].appl 	NumberofFN 	0.27027027027027
scalar RSUExampleScenario.node[58].veinsmobility 	startTime 	139.8
scalar RSUExampleScenario.node[58].veinsmobility 	totalTime 	310.2
scalar RSUExampleScenario.node[58].veinsmobility 	stopTime 	450
scalar RSUExampleScenario.node[58].veinsmobility 	minSpeed 	0
scalar RSUExampleScenario.node[58].veinsmobility 	maxSpeed 	13.99993137555
scalar RSUExampleScenario.node[58].veinsmobility 	totalDistance 	1160.6798294128
scalar RSUExampleScenario.node[58].veinsmobility 	totalCO2Emission 	486.86008040991
scalar RSUExampleScenario.node[59].appl 	meanClusterNodes 	10
scalar RSUExampleScenario.node[59].appl 	meanClusterHeadUtility 	16.90144067128
scalar RSUExampleScenario.node[59].appl 	NumberofCH 	0.054054054054054
scalar RSUExampleScenario.node[59].appl 	NumberofON 	0.37837837837838
scalar RSUExampleScenario.node[59].appl 	NumberofFN 	0.56756756756757
scalar RSUExampleScenario.node[59].veinsmobility 	startTime 	142.2
scalar RSUExampleScenario.node[59].veinsmobility 	totalTime 	307.8
scalar RSUExampleScenario.node[59].veinsmobility 	stopTime 	450
scalar RSUExampleScenario.node[59].veinsmobility 	minSpeed 	0
scalar RSUExampleScenario.node[59].veinsmobility 	maxSpeed 	13.999956044804
scalar RSUExampleScenario.node[59].veinsmobility 	totalDistance 	1126.8124872087
scalar RSUExampleScenario.node[59].veinsmobility 	totalCO2Emission 	481.08444398529
scalar RSUExampleScenario.node[6].appl 	meanClusterNodes 	1.5
scalar RSUExampleScenario.node[6].appl 	meanClusterHeadUtility 	19.035520925612
scalar RSUExampleScenario.node[6].appl 	NumberofCH 	0.054054054054054
scalar RSUExampleScenario.node[6].appl 	NumberofON 	0.27027027027027
scalar RSUExampleScenario.node[6].appl 	NumberofFN 	0.67567567567568
scalar RSUExampleScenario.node[6].veinsmobility 	startTime 	14.5
scalar RSUExampleScenario.node[6].veinsmobility 	totalTime 	435.5
scalar RSUExampleScenario.node[6].veinsmobility 	stopTime 	450
scalar RSUExampleScenario.node[6].veinsmobility 	minSpeed 	0
scalar RSUExampleScenario.node[6].veinsmobility 	maxSpeed 	13.999984927664
scalar RSUExampleScenario.node[6].veinsmobility 	totalDistance 	2905.5927192565
scalar RSUExampleScenario.node[6].veinsmobility 	totalCO2Emission 	776.75432821928
scalar RSUExampleScenario.node[60].appl 	meanClusterNodes 	8
scalar RSUExampleScenario.node[60].appl 	meanClusterHeadUtility 	34.657942864885
scalar RSUExampleScenario.node[60].appl 	NumberofCH 	0.027027027027027
scalar RSUExampleScenario.node[60].appl 	NumberofON 	0.67567567567568
scalar RSUExampleScenario.node[60].appl 	NumberofFN 	0.2972972972973
scalar RSUExampleScenario.node[60].veinsmobility 	startTime 	144.7
scalar RSUExampleScenario.node[60].veinsmobility 	totalTime 	305.3
scalar RSUExampleScenario.node[60].veinsmobility 	stopTime 	450
scalar RSUExampleScenario.node[60].veinsmobility 	minSpeed 	0
scalar RSUExampleScenario.node[60].veinsmobility 	maxSpeed 	13.999582698639
scalar RSUExampleScenario.node[60].veinsmobility 	totalDistance 	1091.7108561441
scalar RSUExampleScenario.node[60].veinsmobility 	totalCO2Emission 	473.62182889348
scalar RSUExampleScenario.node[61].appl 	meanClusterNodes 	7.5
scalar RSUExampleScenario.node[61].appl 	meanClusterHeadUtility 	16.799178763764
scalar RSUExampleScenario.node[61].appl 	NumberofCH 	0.054054054054054
scalar RSUExampleScenario.node[61].appl 	NumberofON 	0.2972972972973
scalar RSUExampleScenario.node[61].appl 	NumberofFN 	0.64864864864865
scalar RSUExampleScenario.node[61].veinsmobility 	startTime 	147.1
scalar RSUExampleScenario.node[61].veinsmobility 	totalTime 	302.9
scalar RSUExampleScenario.node[61].veinsmobility 	stopTime 	450
scalar RSUExampleScenario.node[61].veinsmobility 	minSpeed 	0
scalar RSUExampleScenario.node[61].veinsmobility 	maxSpeed 	13.999870932263
scalar RSUExampleScenario.node[61].veinsmobility 	totalDistance 	1059.2290338187
scalar RSUExampleScenario.node[61].veinsmobility 	totalCO2Emission 	469.04618808628
scalar RSUExampleScenario.node[62].appl 	meanClusterNodes 	0
scalar RSUExampleScenario.node[62].appl 	meanClusterHeadUtility 	0
scalar RSUExampleScenario.node[62].appl 	NumberofCH 	0
scalar RSUExampleScenario.node[62].appl 	NumberofON 	0.2972972972973
scalar RSUExampleScenario.node[62].appl 	NumberofFN 	0.7027027027027
scalar RSUExampleScenario.node[62].veinsmobility 	startTime 	149.5
scalar RSUExampleScenario.node[62].veinsmobility 	totalTime 	300.5
scalar RSUExampleScenario.node[62].veinsmobility 	stopTime 	450
scalar RSUExampleScenario.node[62].veinsmobility 	minSpeed 	0
scalar RSUExampleScenario.node[62].veinsmobility 	maxSpeed 	13.999505232668
scalar RSUExampleScenario.node[62].veinsmobility 	totalDistance 	1025.108617717
scalar RSUExampleScenario.node[62].veinsmobility 	totalCO2Emission 	461.47488302991
scalar RSUExampleScenario.node[63].appl 	meanClusterNodes 	5.5
scalar RSUExampleScenario.node[63].appl 	meanClusterHeadUtility 	20.602975779266
scalar RSUExampleScenario.node[63].appl 	NumberofCH 	0.054054054054054
scalar RSUExampleScenario.node[63].appl 	NumberofON 	0.56756756756757
scalar RSUExampleScenario.node[63].appl 	NumberofFN 	0.37837837837838
scalar RSUExampleScenario.node[63].veinsmobility 	startTime 	151.9
scalar RSUExampleScenario.node[63].veinsmobility 	totalTime 	298.1
scalar RSUExampleScenario.node[63].veinsmobility 	stopTime 	450
scalar RSUExampleScenario.node[63].veinsmobility 	minSpeed 	0
scalar RSUExampleScenario.node[63].veinsmobility 	maxSpeed 	13.999712022503
scalar RSUExampleScenario.node[63].veinsmobility 	totalDistance 	986.89702128845
scalar RSUExampleScenario.node[63].veinsmobility 	totalCO2Emission 	452.19004946036
scalar RSUExampleScenario.node[64].appl 	meanClusterNodes 	3.5
scalar RSUExampleScenario.node[64].appl 	meanClusterHeadUtility 	18.858918523431
scalar RSUExampleScenario.node[64].appl 	NumberofCH 	0.054054054054054
scalar RSUExampleScenario.node[64].appl 	NumberofON 	0.59459459459459
scalar RSUExampleScenario.node[64].appl 	NumberofFN 	0.35135135135135
scalar RSUExampleScenario.node[64].veinsmobility 	startTime 	154.3
scalar RSUExampleScenario.node[64].veinsmobility 	totalTime 	295.7
scalar RSUExampleScenario.node[64].veinsmobility 	stopTime 	450
scalar RSUExampleScenario.node[64].veinsmobility 	minSpeed 	0
scalar RSUExampleScenario.node[64].veinsmobility 	maxSpeed 	13.999741170753
scalar RSUExampleScenario.node[64].veinsmobility 	totalDistance 	953.30844355823
scalar RSUExampleScenario.node[64].veinsmobility 	totalCO2Emission 	435.40104604139
scalar RSUExampleScenario.node[65].appl 	meanClusterNodes 	7.25
scalar RSUExampleScenario.node[65].appl 	meanClusterHeadUtility 	8.5205974908294
scalar RSUExampleScenario.node[65].appl 	NumberofCH 	0.10810810810811
scalar RSUExampleScenario.node[65].appl 	NumberofON 	0.54054054054054
scalar RSUExampleScenario.node[65].appl 	NumberofFN 	0.35135135135135
scalar RSUExampleScenario.node[65].veinsmobility 	startTime 	156.7
scalar RSUExampleScenario.node[65].veinsmobility 	totalTime 	293.3
scalar RSUExampleScenario.node[65].veinsmobility 	stopTime 	450
scalar RSUExampleScenario.node[65].veinsmobility 	minSpeed 	0
scalar RSUExampleScenario.node[65].veinsmobility 	maxSpeed 	13.999867737265
scalar RSUExampleScenario.node[65].veinsmobility 	totalDistance 	940.47811336204
scalar RSUExampleScenario.node[65].veinsmobility 	totalCO2Emission 	429.58639151684
scalar RSUExampleScenario.node[66].appl 	meanClusterNodes 	3
scalar RSUExampleScenario.node[66].appl 	meanClusterHeadUtility 	17.05930289628
scalar RSUExampleScenario.node[66].appl 	NumberofCH 	0.054054054054054
scalar RSUExampleScenario.node[66].appl 	NumberofON 	0.43243243243243
scalar RSUExampleScenario.node[66].appl 	NumberofFN 	0.51351351351351
scalar RSUExampleScenario.node[66].veinsmobility 	startTime 	159.1
scalar RSUExampleScenario.node[66].veinsmobility 	totalTime 	290.9
scalar RSUExampleScenario.node[66].veinsmobility 	stopTime 	450
scalar RSUExampleScenario.node[66].veinsmobility 	minSpeed 	0
scalar RSUExampleScenario.node[66].veinsmobility 	maxSpeed 	13.999613828745
scalar RSUExampleScenario.node[66].veinsmobility 	totalDistance 	928.21704814239
scalar RSUExampleScenario.node[66].veinsmobility 	totalCO2Emission 	423.29495622548
scalar RSUExampleScenario.node[67].appl 	meanClusterNodes 	8.5
scalar RSUExampleScenario.node[67].appl 	meanClusterHeadUtility 	17.09767539588
scalar RSUExampleScenario.node[67].appl 	NumberofCH 	0.054054054054054
scalar RSUExampleScenario.node[67].appl 	NumberofON 	0.32432432432432
scalar RSUExampleScenario.node[67].appl 	NumberofFN 	0.62162162162162
scalar RSUExampleScenario.node[67].veinsmobility 	startTime 	161.5
scalar RSUExampleScenario.node[67].veinsmobility 	totalTime 	288.5
scalar RSUExampleScenario.node[67].veinsmobility 	stopTime 	450
scalar RSUExampleScenario.node[67].veinsmobility 	minSpeed 	0
scalar RSUExampleScenario.node[67].veinsmobility 	maxSpeed 	13.999936847214
scalar RSUExampleScenario.node[67].veinsmobility 	totalDistance 	912.82089777838
scalar RSUExampleScenario.node[67].veinsmobility 	totalCO2Emission 	421.74591053722
scalar RSUExampleScenario.node[68].appl 	meanClusterNodes 	0
scalar RSUExampleScenario.node[68].appl 	meanClusterHeadUtility 	0
scalar RSUExampleScenario.node[68].appl 	NumberofCH 	0
scalar RSUExampleScenario.node[68].appl 	NumberofON 	0.54054054054054
scalar RSUExampleScenario.node[68].appl 	NumberofFN 	0.45945945945946
scalar RSUExampleScenario.node[68].veinsmobility 	startTime 	163.9
scalar RSUExampleScenario.node[68].veinsmobility 	totalTime 	286.1
scalar RSUExampleScenario.node[68].veinsmobility 	stopTime 	450
scalar RSUExampleScenario.node[68].veinsmobility 	minSpeed 	0
scalar RSUExampleScenario.node[68].veinsmobility 	maxSpeed 	13.999587065582
scalar RSUExampleScenario.node[68].veinsmobility 	totalDistance 	892.00577938356
scalar RSUExampleScenario.node[68].veinsmobility 	totalCO2Emission 	418.50317001983
scalar RSUExampleScenario.node[69].appl 	meanClusterNodes 	0
scalar RSUExampleScenario.node[69].appl 	meanClusterHeadUtility 	0
scalar RSUExampleScenario.node[69].appl 	NumberofCH 	0.054054054054054
scalar RSUExampleScenario.node[69].appl 	NumberofON 	0
scalar RSUExampleScenario.node[69].appl 	NumberofFN 	0.94594594594595
scalar RSUExampleScenario.node[69].veinsmobility 	startTime 	166.3
scalar RSUExampleScenario.node[69].veinsmobility 	totalTime 	283.7
scalar RSUExampleScenario.node[69].veinsmobility 	stopTime 	450
scalar RSUExampleScenario.node[69].veinsmobility 	minSpeed 	0
scalar RSUExampleScenario.node[69].veinsmobility 	maxSpeed 	13.999808912468
scalar RSUExampleScenario.node[69].veinsmobility 	totalDistance 	858.66440035043
scalar RSUExampleScenario.node[69].veinsmobility 	totalCO2Emission 	412.56943526949
scalar RSUExampleScenario.node[7].appl 	meanClusterNodes 	8
scalar RSUExampleScenario.node[7].appl 	meanClusterHeadUtility 	19.517700894365
scalar RSUExampleScenario.node[7].appl 	NumberofCH 	0.054054054054054
scalar RSUExampleScenario.node[7].appl 	NumberofON 	0.16216216216216
scalar RSUExampleScenario.node[7].appl 	NumberofFN 	0.78378378378378
scalar RSUExampleScenario.node[7].veinsmobility 	startTime 	16.9
scalar RSUExampleScenario.node[7].veinsmobility 	totalTime 	433.1
scalar RSUExampleScenario.node[7].veinsmobility 	stopTime 	450
scalar RSUExampleScenario.node[7].veinsmobility 	minSpeed 	0
scalar RSUExampleScenario.node[7].veinsmobility 	maxSpeed 	13.99997934313
scalar RSUExampleScenario.node[7].veinsmobility 	totalDistance 	2885.4222601229
scalar RSUExampleScenario.node[7].veinsmobility 	totalCO2Emission 	777.69878679383
scalar RSUExampleScenario.node[70].appl 	meanClusterNodes 	7
scalar RSUExampleScenario.node[70].appl 	meanClusterHeadUtility 	16.586001911137
scalar RSUExampleScenario.node[70].appl 	NumberofCH 	0.054054054054054
scalar RSUExampleScenario.node[70].appl 	NumberofON 	0.67567567567568
scalar RSUExampleScenario.node[70].appl 	NumberofFN 	0.27027027027027
scalar RSUExampleScenario.node[70].veinsmobility 	startTime 	168.8
scalar RSUExampleScenario.node[70].veinsmobility 	totalTime 	281.2
scalar RSUExampleScenario.node[70].veinsmobility 	stopTime 	450
scalar RSUExampleScenario.node[70].veinsmobility 	minSpeed 	0
scalar RSUExampleScenario.node[70].veinsmobility 	maxSpeed 	13.999488759167
scalar RSUExampleScenario.node[70].veinsmobility 	totalDistance 	825.18618056
scalar RSUExampleScenario.node[70].veinsmobility 	totalCO2Emission 	408.73653933819
scalar RSUExampleScenario.node[71].appl 	meanClusterNodes 	7
scalar RSUExampleScenario.node[71].appl 	meanClusterHeadUtility 	11.283136095819
scalar RSUExampleScenario.node[71].appl 	NumberofCH 	0.081081081081081
scalar RSUExampleScenario.node[71].appl 	NumberofON 	0.35135135135135
scalar RSUExampleScenario.node[71].appl 	NumberofFN 	0.56756756756757
scalar RSUExampleScenario.node[71].veinsmobility 	startTime 	171.2
scalar RSUExampleScenario.node[71].veinsmobility 	totalTime 	278.8
scalar RSUExampleScenario.node[71].veinsmobility 	stopTime 	450
scalar RSUExampleScenario.node[71].veinsmobility 	minSpeed 	0
scalar RSUExampleScenario.node[71].veinsmobility 	maxSpeed 	13.999121974646
scalar RSUExampleScenario.node[71].veinsmobility 	totalDistance 	791.89806408391
scalar RSUExampleScenario.node[71].veinsmobility 	totalCO2Emission 	401.8016408574
scalar RSUExampleScenario.node[72].appl 	meanClusterNodes 	4
scalar RSUExampleScenario.node[72].appl 	meanClusterHeadUtility 	15.57746599573
scalar RSUExampleScenario.node[72].appl 	NumberofCH 	0.054054054054054
scalar RSUExampleScenario.node[72].appl 	NumberofON 	0.62162162162162
scalar RSUExampleScenario.node[72].appl 	NumberofFN 	0.32432432432432
scalar RSUExampleScenario.node[72].veinsmobility 	startTime 	173.6
scalar RSUExampleScenario.node[72].veinsmobility 	totalTime 	276.4
scalar RSUExampleScenario.node[72].veinsmobility 	stopTime 	450
scalar RSUExampleScenario.node[72].veinsmobility 	minSpeed 	0
scalar RSUExampleScenario.node[72].veinsmobility 	maxSpeed 	13.999709958802
scalar RSUExampleScenario.node[72].veinsmobility 	totalDistance 	758.10752108017
scalar RSUExampleScenario.node[72].veinsmobility 	totalCO2Emission 	396.15646824435
scalar RSUExampleScenario.node[73].appl 	meanClusterNodes 	9.5
scalar RSUExampleScenario.node[73].appl 	meanClusterHeadUtility 	17.577290984385
scalar RSUExampleScenario.node[73].appl 	NumberofCH 	0.054054054054054
scalar RSUExampleScenario.node[73].appl 	NumberofON 	0.37837837837838
scalar RSUExampleScenario.node[73].appl 	NumberofFN 	0.56756756756757
scalar RSUExampleScenario.node[73].veinsmobility 	startTime 	176
scalar RSUExampleScenario.node[73].veinsmobility 	totalTime 	274
scalar RSUExampleScenario.node[73].veinsmobility 	stopTime 	450
scalar RSUExampleScenario.node[73].veinsmobility 	minSpeed 	0
scalar RSUExampleScenario.node[73].veinsmobility 	maxSpeed 	13.997937167629
scalar RSUExampleScenario.node[73].veinsmobility 	totalDistance 	722.0430961108
scalar RSUExampleScenario.node[73].veinsmobility 	totalCO2Emission 	391.97819214838
scalar RSUExampleScenario.node[74].appl 	meanClusterNodes 	5.5
scalar RSUExampleScenario.node[74].appl 	meanClusterHeadUtility 	16.31344176887
scalar RSUExampleScenario.node[74].appl 	NumberofCH 	0.054054054054054
scalar RSUExampleScenario.node[74].appl 	NumberofON 	0.43243243243243
scalar RSUExampleScenario.node[74].appl 	NumberofFN 	0.51351351351351
scalar RSUExampleScenario.node[74].veinsmobility 	startTime 	178.4
scalar RSUExampleScenario.node[74].veinsmobility 	totalTime 	271.6
scalar RSUExampleScenario.node[74].veinsmobility 	stopTime 	450
scalar RSUExampleScenario.node[74].veinsmobility 	minSpeed 	0
scalar RSUExampleScenario.node[74].veinsmobility 	maxSpeed 	13.999497088613
scalar RSUExampleScenario.node[74].veinsmobility 	totalDistance 	689.99298610699
scalar RSUExampleScenario.node[74].veinsmobility 	totalCO2Emission 	386.07441290563
scalar RSUExampleScenario.node[75].appl 	meanClusterNodes 	6.5
scalar RSUExampleScenario.node[75].appl 	meanClusterHeadUtility 	18.225918022583
scalar RSUExampleScenario.node[75].appl 	NumberofCH 	0.054054054054054
scalar RSUExampleScenario.node[75].appl 	NumberofON 	0.48648648648649
scalar RSUExampleScenario.node[75].appl 	NumberofFN 	0.45945945945946
scalar RSUExampleScenario.node[75].veinsmobility 	startTime 	180.8
scalar RSUExampleScenario.node[75].veinsmobility 	totalTime 	269.2
scalar RSUExampleScenario.node[75].veinsmobility 	stopTime 	450
scalar RSUExampleScenario.node[75].veinsmobility 	minSpeed 	0
scalar RSUExampleScenario.node[75].veinsmobility 	maxSpeed 	13.999269845975
scalar RSUExampleScenario.node[75].veinsmobility 	totalDistance 	655.60752311954
scalar RSUExampleScenario.node[75].veinsmobility 	totalCO2Emission 	378.94790112782
scalar RSUExampleScenario.node[76].appl 	meanClusterNodes 	4
scalar RSUExampleScenario.node[76].appl 	meanClusterHeadUtility 	8.6196545687848
scalar RSUExampleScenario.node[76].appl 	NumberofCH 	0.10810810810811
scalar RSUExampleScenario.node[76].appl 	NumberofON 	0.56756756756757
scalar RSUExampleScenario.node[76].appl 	NumberofFN 	0.32432432432432
scalar RSUExampleScenario.node[76].veinsmobility 	startTime 	183.2
scalar RSUExampleScenario.node[76].veinsmobility 	totalTime 	266.8
scalar RSUExampleScenario.node[76].veinsmobility 	stopTime 	450
scalar RSUExampleScenario.node[76].veinsmobility 	minSpeed 	0
scalar RSUExampleScenario.node[76].veinsmobility 	maxSpeed 	13.998975487503
scalar RSUExampleScenario.node[76].veinsmobility 	totalDistance 	623.06505936623
scalar RSUExampleScenario.node[76].veinsmobility 	totalCO2Emission 	373.04489862615
scalar RSUExampleScenario.node[77].appl 	meanClusterNodes 	9.75
scalar RSUExampleScenario.node[77].appl 	meanClusterHeadUtility 	8.7191355639676
scalar RSUExampleScenario.node[77].appl 	NumberofCH 	0.10810810810811
scalar RSUExampleScenario.node[77].appl 	NumberofON 	0.13513513513514
scalar RSUExampleScenario.node[77].appl 	NumberofFN 	0.75675675675676
scalar RSUExampleScenario.node[77].veinsmobility 	startTime 	185.6
scalar RSUExampleScenario.node[77].veinsmobility 	totalTime 	264.4
scalar RSUExampleScenario.node[77].veinsmobility 	stopTime 	450
scalar RSUExampleScenario.node[77].veinsmobility 	minSpeed 	0
scalar RSUExampleScenario.node[77].veinsmobility 	maxSpeed 	13.999525936998
scalar RSUExampleScenario.node[77].veinsmobility 	totalDistance 	589.67123732334
scalar RSUExampleScenario.node[77].veinsmobility 	totalCO2Emission 	366.29807223072
scalar RSUExampleScenario.node[78].appl 	meanClusterNodes 	12
scalar RSUExampleScenario.node[78].appl 	meanClusterHeadUtility 	17.234828507697
scalar RSUExampleScenario.node[78].appl 	NumberofCH 	0.054054054054054
scalar RSUExampleScenario.node[78].appl 	NumberofON 	0.2972972972973
scalar RSUExampleScenario.node[78].appl 	NumberofFN 	0.64864864864865
scalar RSUExampleScenario.node[78].veinsmobility 	startTime 	188
scalar RSUExampleScenario.node[78].veinsmobility 	totalTime 	262
scalar RSUExampleScenario.node[78].veinsmobility 	stopTime 	450
scalar RSUExampleScenario.node[78].veinsmobility 	minSpeed 	0
scalar RSUExampleScenario.node[78].veinsmobility 	maxSpeed 	13.999825568667
scalar RSUExampleScenario.node[78].veinsmobility 	totalDistance 	555.8951044172
scalar RSUExampleScenario.node[78].veinsmobility 	totalCO2Emission 	361.7326290866
scalar RSUExampleScenario.node[79].appl 	meanClusterNodes 	0
scalar RSUExampleScenario.node[79].appl 	meanClusterHeadUtility 	0
scalar RSUExampleScenario.node[79].appl 	NumberofCH 	0
scalar RSUExampleScenario.node[79].appl 	NumberofON 	0.37837837837838
scalar RSUExampleScenario.node[79].appl 	NumberofFN 	0.62162162162162
scalar RSUExampleScenario.node[79].veinsmobility 	startTime 	190.4
scalar RSUExampleScenario.node[79].veinsmobility 	totalTime 	259.6
scalar RSUExampleScenario.node[79].veinsmobility 	stopTime 	450
scalar RSUExampleScenario.node[79].veinsmobility 	minSpeed 	0
scalar RSUExampleScenario.node[79].veinsmobility 	maxSpeed 	13.998523385073
scalar RSUExampleScenario.node[79].veinsmobility 	totalDistance 	522.56093342687
scalar RSUExampleScenario.node[79].veinsmobility 	totalCO2Emission 	355.16509224098
scalar RSUExampleScenario.node[8].appl 	meanClusterNodes 	0
scalar RSUExampleScenario.node[8].appl 	meanClusterHeadUtility 	0
scalar RSUExampleScenario.node[8].appl 	NumberofCH 	0
scalar RSUExampleScenario.node[8].appl 	NumberofON 	0.18918918918919
scalar RSUExampleScenario.node[8].appl 	NumberofFN 	0.81081081081081
scalar RSUExampleScenario.node[8].veinsmobility 	startTime 	19.3
scalar RSUExampleScenario.node[8].veinsmobility 	totalTime 	430.7
scalar RSUExampleScenario.node[8].veinsmobility 	stopTime 	450
scalar RSUExampleScenario.node[8].veinsmobility 	minSpeed 	0
scalar RSUExampleScenario.node[8].veinsmobility 	maxSpeed 	13.999718111362
scalar RSUExampleScenario.node[8].veinsmobility 	totalDistance 	2862.0753556022
scalar RSUExampleScenario.node[8].veinsmobility 	totalCO2Emission 	771.69425650751
scalar RSUExampleScenario.node[80].appl 	meanClusterNodes 	0
scalar RSUExampleScenario.node[80].appl 	meanClusterHeadUtility 	0
scalar RSUExampleScenario.node[80].appl 	NumberofCH 	0
scalar RSUExampleScenario.node[80].appl 	NumberofON 	0.54054054054054
scalar RSUExampleScenario.node[80].appl 	NumberofFN 	0.45945945945946
scalar RSUExampleScenario.node[80].veinsmobility 	startTime 	192.9
scalar RSUExampleScenario.node[80].veinsmobility 	totalTime 	257.1
scalar RSUExampleScenario.node[80].veinsmobility 	stopTime 	450
scalar RSUExampleScenario.node[80].veinsmobility 	minSpeed 	0
scalar RSUExampleScenario.node[80].veinsmobility 	maxSpeed 	13.999218454298
scalar RSUExampleScenario.node[80].veinsmobility 	totalDistance 	489.51937311674
scalar RSUExampleScenario.node[80].veinsmobility 	totalCO2Emission 	350.56830139699
scalar RSUExampleScenario.node[81].appl 	meanClusterNodes 	0
scalar RSUExampleScenario.node[81].appl 	meanClusterHeadUtility 	0
scalar RSUExampleScenario.node[81].appl 	NumberofCH 	0
scalar RSUExampleScenario.node[81].appl 	NumberofON 	0.54054054054054
scalar RSUExampleScenario.node[81].appl 	NumberofFN 	0.45945945945946
scalar RSUExampleScenario.node[81].veinsmobility 	startTime 	195.3
scalar RSUExampleScenario.node[81].veinsmobility 	totalTime 	254.7
scalar RSUExampleScenario.node[81].veinsmobility 	stopTime 	450
scalar RSUExampleScenario.node[81].veinsmobility 	minSpeed 	0
scalar RSUExampleScenario.node[81].veinsmobility 	maxSpeed 	13.998355587211
scalar RSUExampleScenario.node[81].veinsmobility 	totalDistance 	456.41981768746
scalar RSUExampleScenario.node[81].veinsmobility 	totalCO2Emission 	344.23900089651
scalar RSUExampleScenario.node[82].appl 	meanClusterNodes 	0
scalar RSUExampleScenario.node[82].appl 	meanClusterHeadUtility 	0
scalar RSUExampleScenario.node[82].appl 	NumberofCH 	0
scalar RSUExampleScenario.node[82].appl 	NumberofON 	0.54054054054054
scalar RSUExampleScenario.node[82].appl 	NumberofFN 	0.45945945945946
scalar RSUExampleScenario.node[82].veinsmobility 	startTime 	197.7
scalar RSUExampleScenario.node[82].veinsmobility 	totalTime 	252.3
scalar RSUExampleScenario.node[82].veinsmobility 	stopTime 	450
scalar RSUExampleScenario.node[82].veinsmobility 	minSpeed 	0
scalar RSUExampleScenario.node[82].veinsmobility 	maxSpeed 	13.999798421918
scalar RSUExampleScenario.node[82].veinsmobility 	totalDistance 	421.15775743885
scalar RSUExampleScenario.node[82].veinsmobility 	totalCO2Emission 	338.99020223827
scalar RSUExampleScenario.node[83].appl 	meanClusterNodes 	9.5
scalar RSUExampleScenario.node[83].appl 	meanClusterHeadUtility 	19.661454926883
scalar RSUExampleScenario.node[83].appl 	NumberofCH 	0.054054054054054
scalar RSUExampleScenario.node[83].appl 	NumberofON 	0.48648648648649
scalar RSUExampleScenario.node[83].appl 	NumberofFN 	0.45945945945946
scalar RSUExampleScenario.node[83].veinsmobility 	startTime 	200.1
scalar RSUExampleScenario.node[83].veinsmobility 	totalTime 	249.9
scalar RSUExampleScenario.node[83].veinsmobility 	stopTime 	450
scalar RSUExampleScenario.node[83].veinsmobility 	minSpeed 	0
scalar RSUExampleScenario.node[83].veinsmobility 	maxSpeed 	13.99977419158
scalar RSUExampleScenario.node[83].veinsmobility 	totalDistance 	385.76944179003
scalar RSUExampleScenario.node[83].veinsmobility 	totalCO2Emission 	333.86385012521
scalar RSUExampleScenario.node[84].appl 	meanClusterNodes 	0
scalar RSUExampleScenario.node[84].appl 	meanClusterHeadUtility 	0
scalar RSUExampleScenario.node[84].appl 	NumberofCH 	0
scalar RSUExampleScenario.node[84].appl 	NumberofON 	0.56756756756757
scalar RSUExampleScenario.node[84].appl 	NumberofFN 	0.43243243243243
scalar RSUExampleScenario.node[84].veinsmobility 	startTime 	202.5
scalar RSUExampleScenario.node[84].veinsmobility 	totalTime 	247.5
scalar RSUExampleScenario.node[84].veinsmobility 	stopTime 	450
scalar RSUExampleScenario.node[84].veinsmobility 	minSpeed 	0
scalar RSUExampleScenario.node[84].veinsmobility 	maxSpeed 	13.99092866244
scalar RSUExampleScenario.node[84].veinsmobility 	totalDistance 	353.45748558944
scalar RSUExampleScenario.node[84].veinsmobility 	totalCO2Emission 	327.4447059681
scalar RSUExampleScenario.node[85].appl 	meanClusterNodes 	6
scalar RSUExampleScenario.node[85].appl 	meanClusterHeadUtility 	17.418524606889
scalar RSUExampleScenario.node[85].appl 	NumberofCH 	0.054054054054054
scalar RSUExampleScenario.node[85].appl 	NumberofON 	0.48648648648649
scalar RSUExampleScenario.node[85].appl 	NumberofFN 	0.45945945945946
scalar RSUExampleScenario.node[85].veinsmobility 	startTime 	204.9
scalar RSUExampleScenario.node[85].veinsmobility 	totalTime 	245.1
scalar RSUExampleScenario.node[85].veinsmobility 	stopTime 	450
scalar RSUExampleScenario.node[85].veinsmobility 	minSpeed 	0
scalar RSUExampleScenario.node[85].veinsmobility 	maxSpeed 	13.999274076228
scalar RSUExampleScenario.node[85].veinsmobility 	totalDistance 	320.75883420591
scalar RSUExampleScenario.node[85].veinsmobility 	totalCO2Emission 	322.57750116101
scalar RSUExampleScenario.node[86].appl 	meanClusterNodes 	9.5
scalar RSUExampleScenario.node[86].appl 	meanClusterHeadUtility 	18.495919194086
scalar RSUExampleScenario.node[86].appl 	NumberofCH 	0.054054054054054
scalar RSUExampleScenario.node[86].appl 	NumberofON 	0.37837837837838
scalar RSUExampleScenario.node[86].appl 	NumberofFN 	0.56756756756757
scalar RSUExampleScenario.node[86].veinsmobility 	startTime 	207.3
scalar RSUExampleScenario.node[86].veinsmobility 	totalTime 	242.7
scalar RSUExampleScenario.node[86].veinsmobility 	stopTime 	450
scalar RSUExampleScenario.node[86].veinsmobility 	minSpeed 	0
scalar RSUExampleScenario.node[86].veinsmobility 	maxSpeed 	13.751537829719
scalar RSUExampleScenario.node[86].veinsmobility 	totalDistance 	287.20994158922
scalar RSUExampleScenario.node[86].veinsmobility 	totalCO2Emission 	316.34110325067
scalar RSUExampleScenario.node[87].appl 	meanClusterNodes 	2.25
scalar RSUExampleScenario.node[87].appl 	meanClusterHeadUtility 	8.8283807012975
scalar RSUExampleScenario.node[87].appl 	NumberofCH 	0.10810810810811
scalar RSUExampleScenario.node[87].appl 	NumberofON 	0.51351351351351
scalar RSUExampleScenario.node[87].appl 	NumberofFN 	0.37837837837838
scalar RSUExampleScenario.node[87].veinsmobility 	startTime 	209.7
scalar RSUExampleScenario.node[87].veinsmobility 	totalTime 	240.3
scalar RSUExampleScenario.node[87].veinsmobility 	stopTime 	450
scalar RSUExampleScenario.node[87].veinsmobility 	minSpeed 	0
scalar RSUExampleScenario.node[87].veinsmobility 	maxSpeed 	13.759560665163
scalar RSUExampleScenario.node[87].veinsmobility 	totalDistance 	247.63260872955
scalar RSUExampleScenario.node[87].veinsmobility 	totalCO2Emission 	298.0553731542
scalar RSUExampleScenario.node[88].appl 	meanClusterNodes 	0
scalar RSUExampleScenario.node[88].appl 	meanClusterHeadUtility 	0
scalar RSUExampleScenario.node[88].appl 	NumberofCH 	0
scalar RSUExampleScenario.node[88].appl 	NumberofON 	0.48648648648649
scalar RSUExampleScenario.node[88].appl 	NumberofFN 	0.51351351351351
scalar RSUExampleScenario.node[88].veinsmobility 	startTime 	212.1
scalar RSUExampleScenario.node[88].veinsmobility 	totalTime 	237.9
scalar RSUExampleScenario.node[88].veinsmobility 	stopTime 	450
scalar RSUExampleScenario.node[88].veinsmobility 	minSpeed 	0
scalar RSUExampleScenario.node[88].veinsmobility 	maxSpeed 	13.773705503828
scalar RSUExampleScenario.node[88].veinsmobility 	totalDistance 	225.54430177359
scalar RSUExampleScenario.node[88].veinsmobility 	totalCO2Emission 	287.1284943784
scalar RSUExampleScenario.node[89].appl 	meanClusterNodes 	7
scalar RSUExampleScenario.node[89].appl 	meanClusterHeadUtility 	39.680996289657
scalar RSUExampleScenario.node[89].appl 	NumberofCH 	0.027027027027027
scalar RSUExampleScenario.node[89].appl 	NumberofON 	0.35135135135135
scalar RSUExampleScenario.node[89].appl 	NumberofFN 	0.62162162162162
scalar RSUExampleScenario.node[89].veinsmobility 	startTime 	214.5
scalar RSUExampleScenario.node[89].veinsmobility 	totalTime 	235.5
scalar RSUExampleScenario.node[89].veinsmobility 	stopTime 	450
scalar RSUExampleScenario.node[89].veinsmobility 	minSpeed 	0
scalar RSUExampleScenario.node[89].veinsmobility 	maxSpeed 	13.843058461447
scalar RSUExampleScenario.node[89].veinsmobility 	totalDistance 	214.96575142624
scalar RSUExampleScenario.node[89].veinsmobility 	totalCO2Emission 	282.64017012004
scalar RSUExampleScenario.node[9].appl 	meanClusterNodes 	0
scalar RSUExampleScenario.node[9].appl 	meanClusterHeadUtility 	0
scalar RSUExampleScenario.node[9].appl 	NumberofCH 	0
scalar RSUExampleScenario.node[9].appl 	NumberofON 	0.37837837837838
scalar RSUExampleScenario.node[9].appl 	NumberofFN 	0.62162162162162
scalar RSUExampleScenario.node[9].veinsmobility 	startTime 	21.7
scalar RSUExampleScenario.node[9].veinsmobility 	totalTime 	428.3
scalar RSUExampleScenario.node[9].veinsmobility 	stopTime 	450
scalar RSUExampleScenario.node[9].veinsmobility 	minSpeed 	0
scalar RSUExampleScenario.node[9].veinsmobility 	maxSpeed 	13.999904800684
scalar RSUExampleScenario.node[9].veinsmobility 	totalDistance 	2824.2982887718
scalar RSUExampleScenario.node[9].veinsmobility 	totalCO2Emission 	768.84918101317
scalar RSUExampleScenario.node[90].appl 	meanClusterNodes 	6
scalar RSUExampleScenario.node[90].appl 	meanClusterHeadUtility 	18.339746439859
scalar RSUExampleScenario.node[90].appl 	NumberofCH 	0.054054054054054
scalar RSUExampleScenario.node[90].appl 	NumberofON 	0.32432432432432
scalar RSUExampleScenario.node[90].appl 	NumberofFN 	0.62162162162162
scalar RSUExampleScenario.node[90].veinsmobility 	startTime 	217
scalar RSUExampleScenario.node[90].veinsmobility 	totalTime 	233
scalar RSUExampleScenario.node[90].veinsmobility 	stopTime 	450
scalar RSUExampleScenario.node[90].veinsmobility 	minSpeed 	0
scalar RSUExampleScenario.node[90].veinsmobility 	maxSpeed 	13.854445433088
scalar RSUExampleScenario.node[90].veinsmobility 	totalDistance 	201.78557902187
scalar RSUExampleScenario.node[90].veinsmobility 	totalCO2Emission 	280.06072853286
scalar RSUExampleScenario.node[91].appl 	meanClusterNodes 	10
scalar RSUExampleScenario.node[91].appl 	meanClusterHeadUtility 	19.719765832885
scalar RSUExampleScenario.node[91].appl 	NumberofCH 	0.054054054054054
scalar RSUExampleScenario.node[91].appl 	NumberofON 	0.16216216216216
scalar RSUExampleScenario.node[91].appl 	NumberofFN 	0.78378378378378
scalar RSUExampleScenario.node[91].veinsmobility 	startTime 	219.4
scalar RSUExampleScenario.node[91].veinsmobility 	totalTime 	230.6
scalar RSUExampleScenario.node[91].veinsmobility 	stopTime 	450
scalar RSUExampleScenario.node[91].veinsmobility 	minSpeed 	0
scalar RSUExampleScenario.node[91].veinsmobility 	maxSpeed 	13.875516372907
scalar RSUExampleScenario.node[91].veinsmobility 	totalDistance 	184.8954153852
scalar RSUExampleScenario.node[91].veinsmobility 	totalCO2Emission 	277.63050954273
scalar RSUExampleScenario.node[92].appl 	meanClusterNodes 	4
scalar RSUExampleScenario.node[92].appl 	meanClusterHeadUtility 	20.514552485631
scalar RSUExampleScenario.node[92].appl 	NumberofCH 	0.054054054054054
scalar RSUExampleScenario.node[92].appl 	NumberofON 	0.081081081081081
scalar RSUExampleScenario.node[92].appl 	NumberofFN 	0.86486486486486
scalar RSUExampleScenario.node[92].veinsmobility 	startTime 	221.8
scalar RSUExampleScenario.node[92].veinsmobility 	totalTime 	228.2
scalar RSUExampleScenario.node[92].veinsmobility 	stopTime 	450
scalar RSUExampleScenario.node[92].veinsmobility 	minSpeed 	0
scalar RSUExampleScenario.node[92].veinsmobility 	maxSpeed 	13.849218358009
scalar RSUExampleScenario.node[92].veinsmobility 	totalDistance 	148.32503472065
scalar RSUExampleScenario.node[92].veinsmobility 	totalCO2Emission 	263.20037949886
scalar RSUExampleScenario.node[93].appl 	meanClusterNodes 	4
scalar RSUExampleScenario.node[93].appl 	meanClusterHeadUtility 	18.186104742042
scalar RSUExampleScenario.node[93].appl 	NumberofCH 	0.054054054054054
scalar RSUExampleScenario.node[93].appl 	NumberofON 	0.37837837837838
scalar RSUExampleScenario.node[93].appl 	NumberofFN 	0.56756756756757
scalar RSUExampleScenario.node[93].veinsmobility 	startTime 	224.2
scalar RSUExampleScenario.node[93].veinsmobility 	totalTime 	225.8
scalar RSUExampleScenario.node[93].veinsmobility 	stopTime 	450
scalar RSUExampleScenario.node[93].veinsmobility 	minSpeed 	0
scalar RSUExampleScenario.node[93].veinsmobility 	maxSpeed 	13.881956130152
scalar RSUExampleScenario.node[93].veinsmobility 	totalDistance 	122.86983150384
scalar RSUExampleScenario.node[93].veinsmobility 	totalCO2Emission 	251.28860263299
scalar RSUExampleScenario.node[94].appl 	meanClusterNodes 	7.5
scalar RSUExampleScenario.node[94].appl 	meanClusterHeadUtility 	19.316960394467
scalar RSUExampleScenario.node[94].appl 	NumberofCH 	0.054054054054054
scalar RSUExampleScenario.node[94].appl 	NumberofON 	0.24324324324324
scalar RSUExampleScenario.node[94].appl 	NumberofFN 	0.7027027027027
scalar RSUExampleScenario.node[94].veinsmobility 	startTime 	226.6
scalar RSUExampleScenario.node[94].veinsmobility 	totalTime 	223.4
scalar RSUExampleScenario.node[94].veinsmobility 	stopTime 	450
scalar RSUExampleScenario.node[94].veinsmobility 	minSpeed 	0
scalar RSUExampleScenario.node[94].veinsmobility 	maxSpeed 	13.862691202313
scalar RSUExampleScenario.node[94].veinsmobility 	totalDistance 	111.7760364986
scalar RSUExampleScenario.node[94].veinsmobility 	totalCO2Emission 	245.44271845448
scalar RSUExampleScenario.node[95].appl 	meanClusterNodes 	5
scalar RSUExampleScenario.node[95].appl 	meanClusterHeadUtility 	17.005626185521
scalar RSUExampleScenario.node[95].appl 	NumberofCH 	0.054054054054054
scalar RSUExampleScenario.node[95].appl 	NumberofON 	0.40540540540541
scalar RSUExampleScenario.node[95].appl 	NumberofFN 	0.54054054054054
scalar RSUExampleScenario.node[95].veinsmobility 	startTime 	229
scalar RSUExampleScenario.node[95].veinsmobility 	totalTime 	221
scalar RSUExampleScenario.node[95].veinsmobility 	stopTime 	450
scalar RSUExampleScenario.node[95].veinsmobility 	minSpeed 	0
scalar RSUExampleScenario.node[95].veinsmobility 	maxSpeed 	13.845657076356
scalar RSUExampleScenario.node[95].veinsmobility 	totalDistance 	98.98036733945
scalar RSUExampleScenario.node[95].veinsmobility 	totalCO2Emission 	242.07064239453
scalar RSUExampleScenario.node[96].appl 	meanClusterNodes 	1
scalar RSUExampleScenario.node[96].appl 	meanClusterHeadUtility 	16.682849522519
scalar RSUExampleScenario.node[96].appl 	NumberofCH 	0.054054054054054
scalar RSUExampleScenario.node[96].appl 	NumberofON 	0.40540540540541
scalar RSUExampleScenario.node[96].appl 	NumberofFN 	0.54054054054054
scalar RSUExampleScenario.node[96].veinsmobility 	startTime 	231.4
scalar RSUExampleScenario.node[96].veinsmobility 	totalTime 	218.6
scalar RSUExampleScenario.node[96].veinsmobility 	stopTime 	450
scalar RSUExampleScenario.node[96].veinsmobility 	minSpeed 	0
scalar RSUExampleScenario.node[96].veinsmobility 	maxSpeed 	13.829721389308
scalar RSUExampleScenario.node[96].veinsmobility 	totalDistance 	83.067029908486
scalar RSUExampleScenario.node[96].veinsmobility 	totalCO2Emission 	239.76916287874
scalar RSUExampleScenario.node[97].appl 	meanClusterNodes 	5
scalar RSUExampleScenario.node[97].appl 	meanClusterHeadUtility 	16.599159480854
scalar RSUExampleScenario.node[97].appl 	NumberofCH 	0.054054054054054
scalar RSUExampleScenario.node[97].appl 	NumberofON 	0.32432432432432
scalar RSUExampleScenario.node[97].appl 	NumberofFN 	0.62162162162162
scalar RSUExampleScenario.node[97].veinsmobility 	startTime 	233.8
scalar RSUExampleScenario.node[97].veinsmobility 	totalTime 	216.2
scalar RSUExampleScenario.node[97].veinsmobility 	stopTime 	450
scalar RSUExampleScenario.node[97].veinsmobility 	minSpeed 	0
scalar RSUExampleScenario.node[97].veinsmobility 	maxSpeed 	12.928972331962
scalar RSUExampleScenario.node[97].veinsmobility 	totalDistance 	59.268364752993
scalar RSUExampleScenario.node[97].veinsmobility 	totalCO2Emission 	233.87990471344
scalar RSUExampleScenario.node[98].appl 	meanClusterNodes 	4
scalar RSUExampleScenario.node[98].appl 	meanClusterHeadUtility 	15.19090169524
scalar RSUExampleScenario.node[98].appl 	NumberofCH 	0.054054054054054
scalar RSUExampleScenario.node[98].appl 	NumberofON 	0.51351351351351
scalar RSUExampleScenario.node[98].appl 	NumberofFN 	0.43243243243243
scalar RSUExampleScenario.node[98].veinsmobility 	startTime 	236.2
scalar RSUExampleScenario.node[98].veinsmobility 	totalTime 	213.8
scalar RSUExampleScenario.node[98].veinsmobility 	stopTime 	450
scalar RSUExampleScenario.node[98].veinsmobility 	minSpeed 	0
scalar RSUExampleScenario.node[98].veinsmobility 	maxSpeed 	7.7683379148452
scalar RSUExampleScenario.node[98].veinsmobility 	totalDistance 	21.689299264241
scalar RSUExampleScenario.node[98].veinsmobility 	totalCO2Emission 	216.67473097331
scalar RSUExampleScenario.node[99].appl 	meanClusterNodes 	8.5
scalar RSUExampleScenario.node[99].appl 	meanClusterHeadUtility 	17.540245907472
scalar RSUExampleScenario.node[99].appl 	NumberofCH 	0.054054054054054
scalar RSUExampleScenario.node[99].appl 	NumberofON 	0.27027027027027
scalar RSUExampleScenario.node[99].appl 	NumberofFN 	0.67567567567568
scalar RSUExampleScenario.node[99].veinsmobility 	startTime 	238.6
scalar RSUExampleScenario.node[99].veinsmobility 	totalTime 	211.4
scalar RSUExampleScenario.node[99].veinsmobility 	stopTime 	450
scalar RSUExampleScenario.node[99].veinsmobility 	minSpeed 	0
scalar RSUExampleScenario.node[99].veinsmobility 	maxSpeed 	3.1496936048248
scalar RSUExampleScenario.node[99].veinsmobility 	totalDistance 	3.3759933798071
scalar RSUExampleScenario.node[99].veinsmobility 	totalCO2Emission 	207.15677371431
