version 2
run statistic-2852-20150311-12:53:59-3928
attr c 1
attr configname statistic
attr datetime 20150311-12:53:59
attr experiment statistic
attr inifile omnetpp.ini
attr iterationvars "$p=1/2, $c=1"
attr iterationvars2 "$p=1/2, $c=1, $repetition=52"
attr measurement "$p=1/2, $c=1"
attr network RSUExampleScenario
attr p 1/2
attr processid 3928
attr repetition 52
attr replication #52
attr resultdir results
attr runnumber 2852
attr seedset 2852

scalar . 	c 	1
scalar RSUExampleScenario.rsu[0].appl 	NumberofCH 	44
scalar RSUExampleScenario.rsu[0].appl 	NumberofON 	39
scalar RSUExampleScenario.rsu[0].appl 	NumberofFN 	17
scalar RSUExampleScenario.rsu[0].appl 	meanClusterNodes 	0.88636363636364
scalar RSUExampleScenario.rsu[0].appl 	varClusterNodes 	0.31736909190384
scalar RSUExampleScenario.rsu[0].appl 	sumCHutility 	nan
scalar RSUExampleScenario.rsu[0].appl 	meanCHutility 	nan
scalar RSUExampleScenario.rsu[0].appl 	varCHutility 	nan
scalar RSUExampleScenario.rsu[0].appl 	sumDiffCHutility 	-13996.849486396
scalar RSUExampleScenario.rsu[0].appl 	meanDiffCHutility 	-318.11021559991
scalar RSUExampleScenario.rsu[0].appl 	varDiffCHutility 	130.59050062973
scalar RSUExampleScenario.rsu[0].appl 	expectedCHutility 	1495.7383531589
scalar RSUExampleScenario.rsu[0].appl 	meanExpectedCHutility 	33.994053480884
scalar RSUExampleScenario.rsu[0].appl 	varExpectedCHutility 	8.6635436416066
