version 2
run statistic4-593-20150324-15:19:47-10108
attr c 12
attr configname statistic4
attr datetime 20150324-15:19:47
attr experiment statistic4
attr inifile omnetpp.ini
attr iterationvars "$p=1/8, $c=12"
attr iterationvars2 "$p=1/8, $c=12, $repetition=93"
attr measurement "$p=1/8, $c=12"
attr network RSUExampleScenario
attr p 1/8
attr processid 10108
attr repetition 93
attr replication #93
attr resultdir results
attr runnumber 593
attr seedset 593

scalar . 	c 	12
scalar RSUExampleScenario.rsu[0].appl 	NumberofCH 	14
scalar RSUExampleScenario.rsu[0].appl 	NumberofON 	86
scalar RSUExampleScenario.rsu[0].appl 	NumberofFN 	0
scalar RSUExampleScenario.rsu[0].appl 	meanClusterNodes 	6.1428571428571
scalar RSUExampleScenario.rsu[0].appl 	varClusterNodes 	2.5030593525622
scalar RSUExampleScenario.rsu[0].appl 	sumCHutility 	550.54419636541
scalar RSUExampleScenario.rsu[0].appl 	meanCHutility 	39.324585454672
scalar RSUExampleScenario.rsu[0].appl 	varCHutility 	1.7481147172331
scalar RSUExampleScenario.rsu[0].appl 	sumDiffCHutility 	-70.520646316159
scalar RSUExampleScenario.rsu[0].appl 	meanDiffCHutility 	-5.0371890225828
scalar RSUExampleScenario.rsu[0].appl 	varDiffCHutility 	1.5969721430211
scalar RSUExampleScenario.rsu[0].appl 	expectedCHutility 	480.02355004925
scalar RSUExampleScenario.rsu[0].appl 	meanExpectedCHutility 	34.287396432089
scalar RSUExampleScenario.rsu[0].appl 	varExpectedCHutility 	0.59739486961127
scalar RSUExampleScenario.node[0].veinsmobility 	startTime 	0.1
scalar RSUExampleScenario.node[0].veinsmobility 	totalTime 	349.9
scalar RSUExampleScenario.node[0].veinsmobility 	stopTime 	350
scalar RSUExampleScenario.node[0].veinsmobility 	minSpeed 	0
scalar RSUExampleScenario.node[0].veinsmobility 	maxSpeed 	13.999940626959
scalar RSUExampleScenario.node[0].veinsmobility 	totalDistance 	3132.5928693054
scalar RSUExampleScenario.node[0].veinsmobility 	totalCO2Emission 	741.53329372428
scalar RSUExampleScenario.node[1].veinsmobility 	startTime 	2.5
scalar RSUExampleScenario.node[1].veinsmobility 	totalTime 	347.5
scalar RSUExampleScenario.node[1].veinsmobility 	stopTime 	350
scalar RSUExampleScenario.node[1].veinsmobility 	minSpeed 	0
scalar RSUExampleScenario.node[1].veinsmobility 	maxSpeed 	13.999960022895
scalar RSUExampleScenario.node[1].veinsmobility 	totalDistance 	3082.1925534863
scalar RSUExampleScenario.node[1].veinsmobility 	totalCO2Emission 	729.05481284358
scalar RSUExampleScenario.node[10].veinsmobility 	startTime 	24.2
scalar RSUExampleScenario.node[10].veinsmobility 	totalTime 	325.8
scalar RSUExampleScenario.node[10].veinsmobility 	stopTime 	350
scalar RSUExampleScenario.node[10].veinsmobility 	minSpeed 	0
scalar RSUExampleScenario.node[10].veinsmobility 	maxSpeed 	13.999899901296
scalar RSUExampleScenario.node[10].veinsmobility 	totalDistance 	2788.4028994524
scalar RSUExampleScenario.node[10].veinsmobility 	totalCO2Emission 	659.68076684883
scalar RSUExampleScenario.node[11].veinsmobility 	startTime 	26.6
scalar RSUExampleScenario.node[11].veinsmobility 	totalTime 	323.4
scalar RSUExampleScenario.node[11].veinsmobility 	stopTime 	350
scalar RSUExampleScenario.node[11].veinsmobility 	minSpeed 	0
scalar RSUExampleScenario.node[11].veinsmobility 	maxSpeed 	13.999990316757
scalar RSUExampleScenario.node[11].veinsmobility 	totalDistance 	2756.7628189159
scalar RSUExampleScenario.node[11].veinsmobility 	totalCO2Emission 	657.87322806215
scalar RSUExampleScenario.node[12].veinsmobility 	startTime 	29
scalar RSUExampleScenario.node[12].veinsmobility 	totalTime 	321
scalar RSUExampleScenario.node[12].veinsmobility 	stopTime 	350
scalar RSUExampleScenario.node[12].veinsmobility 	minSpeed 	0
scalar RSUExampleScenario.node[12].veinsmobility 	maxSpeed 	13.999945613882
scalar RSUExampleScenario.node[12].veinsmobility 	totalDistance 	2718.4799968407
scalar RSUExampleScenario.node[12].veinsmobility 	totalCO2Emission 	650.86965861026
scalar RSUExampleScenario.node[13].veinsmobility 	startTime 	31.4
scalar RSUExampleScenario.node[13].veinsmobility 	totalTime 	318.6
scalar RSUExampleScenario.node[13].veinsmobility 	stopTime 	350
scalar RSUExampleScenario.node[13].veinsmobility 	minSpeed 	0
scalar RSUExampleScenario.node[13].veinsmobility 	maxSpeed 	13.99997801933
scalar RSUExampleScenario.node[13].veinsmobility 	totalDistance 	2683.297101062
scalar RSUExampleScenario.node[13].veinsmobility 	totalCO2Emission 	644.26939266415
scalar RSUExampleScenario.node[14].veinsmobility 	startTime 	33.8
scalar RSUExampleScenario.node[14].veinsmobility 	totalTime 	316.2
scalar RSUExampleScenario.node[14].veinsmobility 	stopTime 	350
scalar RSUExampleScenario.node[14].veinsmobility 	minSpeed 	0
scalar RSUExampleScenario.node[14].veinsmobility 	maxSpeed 	13.999996503745
scalar RSUExampleScenario.node[14].veinsmobility 	totalDistance 	2647.8971514522
scalar RSUExampleScenario.node[14].veinsmobility 	totalCO2Emission 	639.29833332048
scalar RSUExampleScenario.node[15].veinsmobility 	startTime 	36.2
scalar RSUExampleScenario.node[15].veinsmobility 	totalTime 	313.8
scalar RSUExampleScenario.node[15].veinsmobility 	stopTime 	350
scalar RSUExampleScenario.node[15].veinsmobility 	minSpeed 	0
scalar RSUExampleScenario.node[15].veinsmobility 	maxSpeed 	13.999955398249
scalar RSUExampleScenario.node[15].veinsmobility 	totalDistance 	2617.1080787254
scalar RSUExampleScenario.node[15].veinsmobility 	totalCO2Emission 	630.14790563546
scalar RSUExampleScenario.node[16].veinsmobility 	startTime 	38.6
scalar RSUExampleScenario.node[16].veinsmobility 	totalTime 	311.4
scalar RSUExampleScenario.node[16].veinsmobility 	stopTime 	350
scalar RSUExampleScenario.node[16].veinsmobility 	minSpeed 	0
scalar RSUExampleScenario.node[16].veinsmobility 	maxSpeed 	13.999933920512
scalar RSUExampleScenario.node[16].veinsmobility 	totalDistance 	2580.0149235187
scalar RSUExampleScenario.node[16].veinsmobility 	totalCO2Emission 	625.72516970573
scalar RSUExampleScenario.node[17].veinsmobility 	startTime 	41
scalar RSUExampleScenario.node[17].veinsmobility 	totalTime 	309
scalar RSUExampleScenario.node[17].veinsmobility 	stopTime 	350
scalar RSUExampleScenario.node[17].veinsmobility 	minSpeed 	0
scalar RSUExampleScenario.node[17].veinsmobility 	maxSpeed 	13.999628095287
scalar RSUExampleScenario.node[17].veinsmobility 	totalDistance 	2543.1269455816
scalar RSUExampleScenario.node[17].veinsmobility 	totalCO2Emission 	620.44794437888
scalar RSUExampleScenario.node[18].veinsmobility 	startTime 	43.4
scalar RSUExampleScenario.node[18].veinsmobility 	totalTime 	306.6
scalar RSUExampleScenario.node[18].veinsmobility 	stopTime 	350
scalar RSUExampleScenario.node[18].veinsmobility 	minSpeed 	0
scalar RSUExampleScenario.node[18].veinsmobility 	maxSpeed 	13.999859959362
scalar RSUExampleScenario.node[18].veinsmobility 	totalDistance 	2504.5727180323
scalar RSUExampleScenario.node[18].veinsmobility 	totalCO2Emission 	616.56743116038
scalar RSUExampleScenario.node[19].veinsmobility 	startTime 	45.8
scalar RSUExampleScenario.node[19].veinsmobility 	totalTime 	304.2
scalar RSUExampleScenario.node[19].veinsmobility 	stopTime 	350
scalar RSUExampleScenario.node[19].veinsmobility 	minSpeed 	0
scalar RSUExampleScenario.node[19].veinsmobility 	maxSpeed 	13.999959467265
scalar RSUExampleScenario.node[19].veinsmobility 	totalDistance 	2474.7533530965
scalar RSUExampleScenario.node[19].veinsmobility 	totalCO2Emission 	607.41525373973
scalar RSUExampleScenario.node[2].veinsmobility 	startTime 	4.9
scalar RSUExampleScenario.node[2].veinsmobility 	totalTime 	345.1
scalar RSUExampleScenario.node[2].veinsmobility 	stopTime 	350
scalar RSUExampleScenario.node[2].veinsmobility 	minSpeed 	0
scalar RSUExampleScenario.node[2].veinsmobility 	maxSpeed 	13.999997041698
scalar RSUExampleScenario.node[2].veinsmobility 	totalDistance 	3035.9772742038
scalar RSUExampleScenario.node[2].veinsmobility 	totalCO2Emission 	723.1365792974
scalar RSUExampleScenario.node[20].veinsmobility 	startTime 	48.3
scalar RSUExampleScenario.node[20].veinsmobility 	totalTime 	301.7
scalar RSUExampleScenario.node[20].veinsmobility 	stopTime 	350
scalar RSUExampleScenario.node[20].veinsmobility 	minSpeed 	0
scalar RSUExampleScenario.node[20].veinsmobility 	maxSpeed 	13.999993143878
scalar RSUExampleScenario.node[20].veinsmobility 	totalDistance 	2438.1654725206
scalar RSUExampleScenario.node[20].veinsmobility 	totalCO2Emission 	602.84956114403
scalar RSUExampleScenario.node[21].veinsmobility 	startTime 	50.7
scalar RSUExampleScenario.node[21].veinsmobility 	totalTime 	299.3
scalar RSUExampleScenario.node[21].veinsmobility 	stopTime 	350
scalar RSUExampleScenario.node[21].veinsmobility 	minSpeed 	0
scalar RSUExampleScenario.node[21].veinsmobility 	maxSpeed 	13.999775960592
scalar RSUExampleScenario.node[21].veinsmobility 	totalDistance 	2408.1971683426
scalar RSUExampleScenario.node[21].veinsmobility 	totalCO2Emission 	598.09669553733
scalar RSUExampleScenario.node[22].veinsmobility 	startTime 	53.1
scalar RSUExampleScenario.node[22].veinsmobility 	totalTime 	296.9
scalar RSUExampleScenario.node[22].veinsmobility 	stopTime 	350
scalar RSUExampleScenario.node[22].veinsmobility 	minSpeed 	0
scalar RSUExampleScenario.node[22].veinsmobility 	maxSpeed 	13.999988239375
scalar RSUExampleScenario.node[22].veinsmobility 	totalDistance 	2371.0461017788
scalar RSUExampleScenario.node[22].veinsmobility 	totalCO2Emission 	592.57063390728
scalar RSUExampleScenario.node[23].veinsmobility 	startTime 	55.5
scalar RSUExampleScenario.node[23].veinsmobility 	totalTime 	294.5
scalar RSUExampleScenario.node[23].veinsmobility 	stopTime 	350
scalar RSUExampleScenario.node[23].veinsmobility 	minSpeed 	0
scalar RSUExampleScenario.node[23].veinsmobility 	maxSpeed 	13.999912658646
scalar RSUExampleScenario.node[23].veinsmobility 	totalDistance 	2339.2711176004
scalar RSUExampleScenario.node[23].veinsmobility 	totalCO2Emission 	583.48626284569
scalar RSUExampleScenario.node[24].veinsmobility 	startTime 	57.9
scalar RSUExampleScenario.node[24].veinsmobility 	totalTime 	292.1
scalar RSUExampleScenario.node[24].veinsmobility 	stopTime 	350
scalar RSUExampleScenario.node[24].veinsmobility 	minSpeed 	0
scalar RSUExampleScenario.node[24].veinsmobility 	maxSpeed 	13.999946018534
scalar RSUExampleScenario.node[24].veinsmobility 	totalDistance 	2302.6760901084
scalar RSUExampleScenario.node[24].veinsmobility 	totalCO2Emission 	579.02044986219
scalar RSUExampleScenario.node[25].veinsmobility 	startTime 	60.3
scalar RSUExampleScenario.node[25].veinsmobility 	totalTime 	289.7
scalar RSUExampleScenario.node[25].veinsmobility 	stopTime 	350
scalar RSUExampleScenario.node[25].veinsmobility 	minSpeed 	0
scalar RSUExampleScenario.node[25].veinsmobility 	maxSpeed 	13.999973020845
scalar RSUExampleScenario.node[25].veinsmobility 	totalDistance 	2273.4590142935
scalar RSUExampleScenario.node[25].veinsmobility 	totalCO2Emission 	573.3292436318
scalar RSUExampleScenario.node[26].veinsmobility 	startTime 	62.7
scalar RSUExampleScenario.node[26].veinsmobility 	totalTime 	287.3
scalar RSUExampleScenario.node[26].veinsmobility 	stopTime 	350
scalar RSUExampleScenario.node[26].veinsmobility 	minSpeed 	0
scalar RSUExampleScenario.node[26].veinsmobility 	maxSpeed 	13.999947640777
scalar RSUExampleScenario.node[26].veinsmobility 	totalDistance 	2233.8022245974
scalar RSUExampleScenario.node[26].veinsmobility 	totalCO2Emission 	570.64761289354
scalar RSUExampleScenario.node[27].veinsmobility 	startTime 	65.1
scalar RSUExampleScenario.node[27].veinsmobility 	totalTime 	284.9
scalar RSUExampleScenario.node[27].veinsmobility 	stopTime 	350
scalar RSUExampleScenario.node[27].veinsmobility 	minSpeed 	0
scalar RSUExampleScenario.node[27].veinsmobility 	maxSpeed 	13.999917668814
scalar RSUExampleScenario.node[27].veinsmobility 	totalDistance 	2202.9645570968
scalar RSUExampleScenario.node[27].veinsmobility 	totalCO2Emission 	568.95942645268
scalar RSUExampleScenario.node[28].veinsmobility 	startTime 	67.5
scalar RSUExampleScenario.node[28].veinsmobility 	totalTime 	282.5
scalar RSUExampleScenario.node[28].veinsmobility 	stopTime 	350
scalar RSUExampleScenario.node[28].veinsmobility 	minSpeed 	0
scalar RSUExampleScenario.node[28].veinsmobility 	maxSpeed 	13.999989833287
scalar RSUExampleScenario.node[28].veinsmobility 	totalDistance 	2167.0902424278
scalar RSUExampleScenario.node[28].veinsmobility 	totalCO2Emission 	556.38697895115
scalar RSUExampleScenario.node[29].veinsmobility 	startTime 	69.9
scalar RSUExampleScenario.node[29].veinsmobility 	totalTime 	280.1
scalar RSUExampleScenario.node[29].veinsmobility 	stopTime 	350
scalar RSUExampleScenario.node[29].veinsmobility 	minSpeed 	0
scalar RSUExampleScenario.node[29].veinsmobility 	maxSpeed 	13.999991263056
scalar RSUExampleScenario.node[29].veinsmobility 	totalDistance 	2135.4941205851
scalar RSUExampleScenario.node[29].veinsmobility 	totalCO2Emission 	553.12889397905
scalar RSUExampleScenario.node[3].veinsmobility 	startTime 	7.3
scalar RSUExampleScenario.node[3].veinsmobility 	totalTime 	342.7
scalar RSUExampleScenario.node[3].veinsmobility 	stopTime 	350
scalar RSUExampleScenario.node[3].veinsmobility 	minSpeed 	0
scalar RSUExampleScenario.node[3].veinsmobility 	maxSpeed 	13.999860632855
scalar RSUExampleScenario.node[3].veinsmobility 	totalDistance 	2995.4502773365
scalar RSUExampleScenario.node[3].veinsmobility 	totalCO2Emission 	720.8907509526
scalar RSUExampleScenario.node[30].veinsmobility 	startTime 	72.4
scalar RSUExampleScenario.node[30].veinsmobility 	totalTime 	277.6
scalar RSUExampleScenario.node[30].veinsmobility 	stopTime 	350
scalar RSUExampleScenario.node[30].veinsmobility 	minSpeed 	0
scalar RSUExampleScenario.node[30].veinsmobility 	maxSpeed 	13.999865316977
scalar RSUExampleScenario.node[30].veinsmobility 	totalDistance 	2100.0879295344
scalar RSUExampleScenario.node[30].veinsmobility 	totalCO2Emission 	549.79696511042
scalar RSUExampleScenario.node[31].veinsmobility 	startTime 	74.8
scalar RSUExampleScenario.node[31].veinsmobility 	totalTime 	275.2
scalar RSUExampleScenario.node[31].veinsmobility 	stopTime 	350
scalar RSUExampleScenario.node[31].veinsmobility 	minSpeed 	0
scalar RSUExampleScenario.node[31].veinsmobility 	maxSpeed 	13.999928237638
scalar RSUExampleScenario.node[31].veinsmobility 	totalDistance 	2066.0396521202
scalar RSUExampleScenario.node[31].veinsmobility 	totalCO2Emission 	537.93801797694
scalar RSUExampleScenario.node[32].veinsmobility 	startTime 	77.2
scalar RSUExampleScenario.node[32].veinsmobility 	totalTime 	272.8
scalar RSUExampleScenario.node[32].veinsmobility 	stopTime 	350
scalar RSUExampleScenario.node[32].veinsmobility 	minSpeed 	0
scalar RSUExampleScenario.node[32].veinsmobility 	maxSpeed 	13.999974794367
scalar RSUExampleScenario.node[32].veinsmobility 	totalDistance 	2032.5789278799
scalar RSUExampleScenario.node[32].veinsmobility 	totalCO2Emission 	534.72722375938
scalar RSUExampleScenario.node[33].veinsmobility 	startTime 	79.6
scalar RSUExampleScenario.node[33].veinsmobility 	totalTime 	270.4
scalar RSUExampleScenario.node[33].veinsmobility 	stopTime 	350
scalar RSUExampleScenario.node[33].veinsmobility 	minSpeed 	0
scalar RSUExampleScenario.node[33].veinsmobility 	maxSpeed 	13.99957573334
scalar RSUExampleScenario.node[33].veinsmobility 	totalDistance 	1998.086157993
scalar RSUExampleScenario.node[33].veinsmobility 	totalCO2Emission 	527.4851203229
scalar RSUExampleScenario.node[34].veinsmobility 	startTime 	82
scalar RSUExampleScenario.node[34].veinsmobility 	totalTime 	268
scalar RSUExampleScenario.node[34].veinsmobility 	stopTime 	350
scalar RSUExampleScenario.node[34].veinsmobility 	minSpeed 	0
scalar RSUExampleScenario.node[34].veinsmobility 	maxSpeed 	13.999886118376
scalar RSUExampleScenario.node[34].veinsmobility 	totalDistance 	1965.0381096814
scalar RSUExampleScenario.node[34].veinsmobility 	totalCO2Emission 	524.80563488581
scalar RSUExampleScenario.node[35].veinsmobility 	startTime 	84.4
scalar RSUExampleScenario.node[35].veinsmobility 	totalTime 	265.6
scalar RSUExampleScenario.node[35].veinsmobility 	stopTime 	350
scalar RSUExampleScenario.node[35].veinsmobility 	minSpeed 	0
scalar RSUExampleScenario.node[35].veinsmobility 	maxSpeed 	13.999988518415
scalar RSUExampleScenario.node[35].veinsmobility 	totalDistance 	1930.3452835761
scalar RSUExampleScenario.node[35].veinsmobility 	totalCO2Emission 	516.93151864733
scalar RSUExampleScenario.node[36].veinsmobility 	startTime 	86.8
scalar RSUExampleScenario.node[36].veinsmobility 	totalTime 	263.2
scalar RSUExampleScenario.node[36].veinsmobility 	stopTime 	350
scalar RSUExampleScenario.node[36].veinsmobility 	minSpeed 	0
scalar RSUExampleScenario.node[36].veinsmobility 	maxSpeed 	13.999974175417
scalar RSUExampleScenario.node[36].veinsmobility 	totalDistance 	1894.9104661076
scalar RSUExampleScenario.node[36].veinsmobility 	totalCO2Emission 	512.47350629785
scalar RSUExampleScenario.node[37].veinsmobility 	startTime 	89.2
scalar RSUExampleScenario.node[37].veinsmobility 	totalTime 	260.8
scalar RSUExampleScenario.node[37].veinsmobility 	stopTime 	350
scalar RSUExampleScenario.node[37].veinsmobility 	minSpeed 	0
scalar RSUExampleScenario.node[37].veinsmobility 	maxSpeed 	13.999776382286
scalar RSUExampleScenario.node[37].veinsmobility 	totalDistance 	1862.5819643184
scalar RSUExampleScenario.node[37].veinsmobility 	totalCO2Emission 	507.57721706471
scalar RSUExampleScenario.node[38].veinsmobility 	startTime 	91.6
scalar RSUExampleScenario.node[38].veinsmobility 	totalTime 	258.4
scalar RSUExampleScenario.node[38].veinsmobility 	stopTime 	350
scalar RSUExampleScenario.node[38].veinsmobility 	minSpeed 	0
scalar RSUExampleScenario.node[38].veinsmobility 	maxSpeed 	13.999870057609
scalar RSUExampleScenario.node[38].veinsmobility 	totalDistance 	1830.1066474496
scalar RSUExampleScenario.node[38].veinsmobility 	totalCO2Emission 	501.76171596968
scalar RSUExampleScenario.node[39].veinsmobility 	startTime 	94
scalar RSUExampleScenario.node[39].veinsmobility 	totalTime 	256
scalar RSUExampleScenario.node[39].veinsmobility 	stopTime 	350
scalar RSUExampleScenario.node[39].veinsmobility 	minSpeed 	0
scalar RSUExampleScenario.node[39].veinsmobility 	maxSpeed 	13.999922631946
scalar RSUExampleScenario.node[39].veinsmobility 	totalDistance 	1796.4838058757
scalar RSUExampleScenario.node[39].veinsmobility 	totalCO2Emission 	494.84106494749
scalar RSUExampleScenario.node[4].veinsmobility 	startTime 	9.7
scalar RSUExampleScenario.node[4].veinsmobility 	totalTime 	340.3
scalar RSUExampleScenario.node[4].veinsmobility 	stopTime 	350
scalar RSUExampleScenario.node[4].veinsmobility 	minSpeed 	0
scalar RSUExampleScenario.node[4].veinsmobility 	maxSpeed 	13.999900437281
scalar RSUExampleScenario.node[4].veinsmobility 	totalDistance 	2945.5067170597
scalar RSUExampleScenario.node[4].veinsmobility 	totalCO2Emission 	704.41575682647
scalar RSUExampleScenario.node[40].veinsmobility 	startTime 	96.5
scalar RSUExampleScenario.node[40].veinsmobility 	totalTime 	253.5
scalar RSUExampleScenario.node[40].veinsmobility 	stopTime 	350
scalar RSUExampleScenario.node[40].veinsmobility 	minSpeed 	0
scalar RSUExampleScenario.node[40].veinsmobility 	maxSpeed 	13.999932819484
scalar RSUExampleScenario.node[40].veinsmobility 	totalDistance 	1762.4911074671
scalar RSUExampleScenario.node[40].veinsmobility 	totalCO2Emission 	489.62003881398
scalar RSUExampleScenario.node[41].veinsmobility 	startTime 	98.9
scalar RSUExampleScenario.node[41].veinsmobility 	totalTime 	251.1
scalar RSUExampleScenario.node[41].veinsmobility 	stopTime 	350
scalar RSUExampleScenario.node[41].veinsmobility 	minSpeed 	0
scalar RSUExampleScenario.node[41].veinsmobility 	maxSpeed 	13.999971724104
scalar RSUExampleScenario.node[41].veinsmobility 	totalDistance 	1728.9583365951
scalar RSUExampleScenario.node[41].veinsmobility 	totalCO2Emission 	487.40488470959
scalar RSUExampleScenario.node[42].veinsmobility 	startTime 	101.3
scalar RSUExampleScenario.node[42].veinsmobility 	totalTime 	248.7
scalar RSUExampleScenario.node[42].veinsmobility 	stopTime 	350
scalar RSUExampleScenario.node[42].veinsmobility 	minSpeed 	0
scalar RSUExampleScenario.node[42].veinsmobility 	maxSpeed 	13.999999592805
scalar RSUExampleScenario.node[42].veinsmobility 	totalDistance 	1695.4334576912
scalar RSUExampleScenario.node[42].veinsmobility 	totalCO2Emission 	477.44801511057
scalar RSUExampleScenario.node[43].veinsmobility 	startTime 	103.7
scalar RSUExampleScenario.node[43].veinsmobility 	totalTime 	246.3
scalar RSUExampleScenario.node[43].veinsmobility 	stopTime 	350
scalar RSUExampleScenario.node[43].veinsmobility 	minSpeed 	0
scalar RSUExampleScenario.node[43].veinsmobility 	maxSpeed 	13.999944939208
scalar RSUExampleScenario.node[43].veinsmobility 	totalDistance 	1661.3822510046
scalar RSUExampleScenario.node[43].veinsmobility 	totalCO2Emission 	472.04685707762
scalar RSUExampleScenario.node[44].veinsmobility 	startTime 	106.1
scalar RSUExampleScenario.node[44].veinsmobility 	totalTime 	243.9
scalar RSUExampleScenario.node[44].veinsmobility 	stopTime 	350
scalar RSUExampleScenario.node[44].veinsmobility 	minSpeed 	0
scalar RSUExampleScenario.node[44].veinsmobility 	maxSpeed 	13.999984049227
scalar RSUExampleScenario.node[44].veinsmobility 	totalDistance 	1629.0282159392
scalar RSUExampleScenario.node[44].veinsmobility 	totalCO2Emission 	466.6468446837
scalar RSUExampleScenario.node[45].veinsmobility 	startTime 	108.5
scalar RSUExampleScenario.node[45].veinsmobility 	totalTime 	241.5
scalar RSUExampleScenario.node[45].veinsmobility 	stopTime 	350
scalar RSUExampleScenario.node[45].veinsmobility 	minSpeed 	0
scalar RSUExampleScenario.node[45].veinsmobility 	maxSpeed 	13.999702931605
scalar RSUExampleScenario.node[45].veinsmobility 	totalDistance 	1594.9521014202
scalar RSUExampleScenario.node[45].veinsmobility 	totalCO2Emission 	460.69674707457
scalar RSUExampleScenario.node[46].veinsmobility 	startTime 	110.9
scalar RSUExampleScenario.node[46].veinsmobility 	totalTime 	239.1
scalar RSUExampleScenario.node[46].veinsmobility 	stopTime 	350
scalar RSUExampleScenario.node[46].veinsmobility 	minSpeed 	0
scalar RSUExampleScenario.node[46].veinsmobility 	maxSpeed 	13.999961147411
scalar RSUExampleScenario.node[46].veinsmobility 	totalDistance 	1559.3272512711
scalar RSUExampleScenario.node[46].veinsmobility 	totalCO2Emission 	455.73143217125
scalar RSUExampleScenario.node[47].veinsmobility 	startTime 	113.3
scalar RSUExampleScenario.node[47].veinsmobility 	totalTime 	236.7
scalar RSUExampleScenario.node[47].veinsmobility 	stopTime 	350
scalar RSUExampleScenario.node[47].veinsmobility 	minSpeed 	0
scalar RSUExampleScenario.node[47].veinsmobility 	maxSpeed 	13.999891358551
scalar RSUExampleScenario.node[47].veinsmobility 	totalDistance 	1527.3234705519
scalar RSUExampleScenario.node[47].veinsmobility 	totalCO2Emission 	448.43256855528
scalar RSUExampleScenario.node[48].veinsmobility 	startTime 	115.7
scalar RSUExampleScenario.node[48].veinsmobility 	totalTime 	234.3
scalar RSUExampleScenario.node[48].veinsmobility 	stopTime 	350
scalar RSUExampleScenario.node[48].veinsmobility 	minSpeed 	0
scalar RSUExampleScenario.node[48].veinsmobility 	maxSpeed 	13.999841737763
scalar RSUExampleScenario.node[48].veinsmobility 	totalDistance 	1493.0860459007
scalar RSUExampleScenario.node[48].veinsmobility 	totalCO2Emission 	444.35181330435
scalar RSUExampleScenario.node[49].veinsmobility 	startTime 	118.1
scalar RSUExampleScenario.node[49].veinsmobility 	totalTime 	231.9
scalar RSUExampleScenario.node[49].veinsmobility 	stopTime 	350
scalar RSUExampleScenario.node[49].veinsmobility 	minSpeed 	0
scalar RSUExampleScenario.node[49].veinsmobility 	maxSpeed 	13.999380474365
scalar RSUExampleScenario.node[49].veinsmobility 	totalDistance 	1460.0446079454
scalar RSUExampleScenario.node[49].veinsmobility 	totalCO2Emission 	437.6727045085
scalar RSUExampleScenario.node[5].veinsmobility 	startTime 	12.1
scalar RSUExampleScenario.node[5].veinsmobility 	totalTime 	337.9
scalar RSUExampleScenario.node[5].veinsmobility 	stopTime 	350
scalar RSUExampleScenario.node[5].veinsmobility 	minSpeed 	0
scalar RSUExampleScenario.node[5].veinsmobility 	maxSpeed 	13.999996123095
scalar RSUExampleScenario.node[5].veinsmobility 	totalDistance 	2917.3272892468
scalar RSUExampleScenario.node[5].veinsmobility 	totalCO2Emission 	687.75071880988
scalar RSUExampleScenario.node[50].veinsmobility 	startTime 	120.6
scalar RSUExampleScenario.node[50].veinsmobility 	totalTime 	229.4
scalar RSUExampleScenario.node[50].veinsmobility 	stopTime 	350
scalar RSUExampleScenario.node[50].veinsmobility 	minSpeed 	0
scalar RSUExampleScenario.node[50].veinsmobility 	maxSpeed 	13.999567419451
scalar RSUExampleScenario.node[50].veinsmobility 	totalDistance 	1426.5460661361
scalar RSUExampleScenario.node[50].veinsmobility 	totalCO2Emission 	432.07218785666
scalar RSUExampleScenario.node[51].veinsmobility 	startTime 	123
scalar RSUExampleScenario.node[51].veinsmobility 	totalTime 	227
scalar RSUExampleScenario.node[51].veinsmobility 	stopTime 	350
scalar RSUExampleScenario.node[51].veinsmobility 	minSpeed 	0
scalar RSUExampleScenario.node[51].veinsmobility 	maxSpeed 	13.99966725101
scalar RSUExampleScenario.node[51].veinsmobility 	totalDistance 	1393.4338086306
scalar RSUExampleScenario.node[51].veinsmobility 	totalCO2Emission 	429.2092472333
scalar RSUExampleScenario.node[52].veinsmobility 	startTime 	125.4
scalar RSUExampleScenario.node[52].veinsmobility 	totalTime 	224.6
scalar RSUExampleScenario.node[52].veinsmobility 	stopTime 	350
scalar RSUExampleScenario.node[52].veinsmobility 	minSpeed 	0
scalar RSUExampleScenario.node[52].veinsmobility 	maxSpeed 	13.999741149142
scalar RSUExampleScenario.node[52].veinsmobility 	totalDistance 	1358.8619375656
scalar RSUExampleScenario.node[52].veinsmobility 	totalCO2Emission 	420.6604829994
scalar RSUExampleScenario.node[53].veinsmobility 	startTime 	127.8
scalar RSUExampleScenario.node[53].veinsmobility 	totalTime 	222.2
scalar RSUExampleScenario.node[53].veinsmobility 	stopTime 	350
scalar RSUExampleScenario.node[53].veinsmobility 	minSpeed 	0
scalar RSUExampleScenario.node[53].veinsmobility 	maxSpeed 	13.999563698517
scalar RSUExampleScenario.node[53].veinsmobility 	totalDistance 	1324.6133777939
scalar RSUExampleScenario.node[53].veinsmobility 	totalCO2Emission 	414.49081820719
scalar RSUExampleScenario.node[54].veinsmobility 	startTime 	130.2
scalar RSUExampleScenario.node[54].veinsmobility 	totalTime 	219.8
scalar RSUExampleScenario.node[54].veinsmobility 	stopTime 	350
scalar RSUExampleScenario.node[54].veinsmobility 	minSpeed 	0
scalar RSUExampleScenario.node[54].veinsmobility 	maxSpeed 	13.999952129882
scalar RSUExampleScenario.node[54].veinsmobility 	totalDistance 	1290.6122372809
scalar RSUExampleScenario.node[54].veinsmobility 	totalCO2Emission 	409.20876994249
scalar RSUExampleScenario.node[55].veinsmobility 	startTime 	132.6
scalar RSUExampleScenario.node[55].veinsmobility 	totalTime 	217.4
scalar RSUExampleScenario.node[55].veinsmobility 	stopTime 	350
scalar RSUExampleScenario.node[55].veinsmobility 	minSpeed 	0
scalar RSUExampleScenario.node[55].veinsmobility 	maxSpeed 	13.999934779729
scalar RSUExampleScenario.node[55].veinsmobility 	totalDistance 	1257.6251475028
scalar RSUExampleScenario.node[55].veinsmobility 	totalCO2Emission 	403.52498544648
scalar RSUExampleScenario.node[56].veinsmobility 	startTime 	135
scalar RSUExampleScenario.node[56].veinsmobility 	totalTime 	215
scalar RSUExampleScenario.node[56].veinsmobility 	stopTime 	350
scalar RSUExampleScenario.node[56].veinsmobility 	minSpeed 	0
scalar RSUExampleScenario.node[56].veinsmobility 	maxSpeed 	13.99960660408
scalar RSUExampleScenario.node[56].veinsmobility 	totalDistance 	1224.33085591
scalar RSUExampleScenario.node[56].veinsmobility 	totalCO2Emission 	398.40983947441
scalar RSUExampleScenario.node[57].veinsmobility 	startTime 	137.4
scalar RSUExampleScenario.node[57].veinsmobility 	totalTime 	212.6
scalar RSUExampleScenario.node[57].veinsmobility 	stopTime 	350
scalar RSUExampleScenario.node[57].veinsmobility 	minSpeed 	0
scalar RSUExampleScenario.node[57].veinsmobility 	maxSpeed 	13.999824711115
scalar RSUExampleScenario.node[57].veinsmobility 	totalDistance 	1190.8676525708
scalar RSUExampleScenario.node[57].veinsmobility 	totalCO2Emission 	392.24039102682
scalar RSUExampleScenario.node[58].veinsmobility 	startTime 	139.8
scalar RSUExampleScenario.node[58].veinsmobility 	totalTime 	210.2
scalar RSUExampleScenario.node[58].veinsmobility 	stopTime 	350
scalar RSUExampleScenario.node[58].veinsmobility 	minSpeed 	0
scalar RSUExampleScenario.node[58].veinsmobility 	maxSpeed 	13.999979014662
scalar RSUExampleScenario.node[58].veinsmobility 	totalDistance 	1156.8570746439
scalar RSUExampleScenario.node[58].veinsmobility 	totalCO2Emission 	388.01137724041
scalar RSUExampleScenario.node[59].veinsmobility 	startTime 	142.2
scalar RSUExampleScenario.node[59].veinsmobility 	totalTime 	207.8
scalar RSUExampleScenario.node[59].veinsmobility 	stopTime 	350
scalar RSUExampleScenario.node[59].veinsmobility 	minSpeed 	0
scalar RSUExampleScenario.node[59].veinsmobility 	maxSpeed 	13.999895097737
scalar RSUExampleScenario.node[59].veinsmobility 	totalDistance 	1124.0822510041
scalar RSUExampleScenario.node[59].veinsmobility 	totalCO2Emission 	384.65530366153
scalar RSUExampleScenario.node[6].veinsmobility 	startTime 	14.5
scalar RSUExampleScenario.node[6].veinsmobility 	totalTime 	335.5
scalar RSUExampleScenario.node[6].veinsmobility 	stopTime 	350
scalar RSUExampleScenario.node[6].veinsmobility 	minSpeed 	0
scalar RSUExampleScenario.node[6].veinsmobility 	maxSpeed 	13.999852795021
scalar RSUExampleScenario.node[6].veinsmobility 	totalDistance 	2900.9959043527
scalar RSUExampleScenario.node[6].veinsmobility 	totalCO2Emission 	679.22959304096
scalar RSUExampleScenario.node[60].veinsmobility 	startTime 	144.7
scalar RSUExampleScenario.node[60].veinsmobility 	totalTime 	205.3
scalar RSUExampleScenario.node[60].veinsmobility 	stopTime 	350
scalar RSUExampleScenario.node[60].veinsmobility 	minSpeed 	0
scalar RSUExampleScenario.node[60].veinsmobility 	maxSpeed 	13.999571800802
scalar RSUExampleScenario.node[60].veinsmobility 	totalDistance 	1089.8228442985
scalar RSUExampleScenario.node[60].veinsmobility 	totalCO2Emission 	376.84984242321
scalar RSUExampleScenario.node[61].veinsmobility 	startTime 	147.1
scalar RSUExampleScenario.node[61].veinsmobility 	totalTime 	202.9
scalar RSUExampleScenario.node[61].veinsmobility 	stopTime 	350
scalar RSUExampleScenario.node[61].veinsmobility 	minSpeed 	0
scalar RSUExampleScenario.node[61].veinsmobility 	maxSpeed 	13.999892761563
scalar RSUExampleScenario.node[61].veinsmobility 	totalDistance 	1056.0239604116
scalar RSUExampleScenario.node[61].veinsmobility 	totalCO2Emission 	369.71378318661
scalar RSUExampleScenario.node[62].veinsmobility 	startTime 	149.5
scalar RSUExampleScenario.node[62].veinsmobility 	totalTime 	200.5
scalar RSUExampleScenario.node[62].veinsmobility 	stopTime 	350
scalar RSUExampleScenario.node[62].veinsmobility 	minSpeed 	0
scalar RSUExampleScenario.node[62].veinsmobility 	maxSpeed 	13.999622569503
scalar RSUExampleScenario.node[62].veinsmobility 	totalDistance 	1023.0495312307
scalar RSUExampleScenario.node[62].veinsmobility 	totalCO2Emission 	366.35887631749
scalar RSUExampleScenario.node[63].veinsmobility 	startTime 	151.9
scalar RSUExampleScenario.node[63].veinsmobility 	totalTime 	198.1
scalar RSUExampleScenario.node[63].veinsmobility 	stopTime 	350
scalar RSUExampleScenario.node[63].veinsmobility 	minSpeed 	0
scalar RSUExampleScenario.node[63].veinsmobility 	maxSpeed 	13.999950926336
scalar RSUExampleScenario.node[63].veinsmobility 	totalDistance 	984.16783800166
scalar RSUExampleScenario.node[63].veinsmobility 	totalCO2Emission 	354.21305342015
scalar RSUExampleScenario.node[64].veinsmobility 	startTime 	154.3
scalar RSUExampleScenario.node[64].veinsmobility 	totalTime 	195.7
scalar RSUExampleScenario.node[64].veinsmobility 	stopTime 	350
scalar RSUExampleScenario.node[64].veinsmobility 	minSpeed 	0
scalar RSUExampleScenario.node[64].veinsmobility 	maxSpeed 	13.999723220356
scalar RSUExampleScenario.node[64].veinsmobility 	totalDistance 	953.3712520698
scalar RSUExampleScenario.node[64].veinsmobility 	totalCO2Emission 	340.16378350682
scalar RSUExampleScenario.node[65].veinsmobility 	startTime 	156.7
scalar RSUExampleScenario.node[65].veinsmobility 	totalTime 	193.3
scalar RSUExampleScenario.node[65].veinsmobility 	stopTime 	350
scalar RSUExampleScenario.node[65].veinsmobility 	minSpeed 	0
scalar RSUExampleScenario.node[65].veinsmobility 	maxSpeed 	13.999285802166
scalar RSUExampleScenario.node[65].veinsmobility 	totalDistance 	940.34527565655
scalar RSUExampleScenario.node[65].veinsmobility 	totalCO2Emission 	332.28753958671
scalar RSUExampleScenario.node[66].veinsmobility 	startTime 	159.1
scalar RSUExampleScenario.node[66].veinsmobility 	totalTime 	190.9
scalar RSUExampleScenario.node[66].veinsmobility 	stopTime 	350
scalar RSUExampleScenario.node[66].veinsmobility 	minSpeed 	0
scalar RSUExampleScenario.node[66].veinsmobility 	maxSpeed 	13.999869272155
scalar RSUExampleScenario.node[66].veinsmobility 	totalDistance 	928.15348174434
scalar RSUExampleScenario.node[66].veinsmobility 	totalCO2Emission 	324.45205895744
scalar RSUExampleScenario.node[67].veinsmobility 	startTime 	161.5
scalar RSUExampleScenario.node[67].veinsmobility 	totalTime 	188.5
scalar RSUExampleScenario.node[67].veinsmobility 	stopTime 	350
scalar RSUExampleScenario.node[67].veinsmobility 	minSpeed 	0
scalar RSUExampleScenario.node[67].veinsmobility 	maxSpeed 	13.999789742513
scalar RSUExampleScenario.node[67].veinsmobility 	totalDistance 	913.22793748228
scalar RSUExampleScenario.node[67].veinsmobility 	totalCO2Emission 	323.00396392473
scalar RSUExampleScenario.node[68].veinsmobility 	startTime 	163.9
scalar RSUExampleScenario.node[68].veinsmobility 	totalTime 	186.1
scalar RSUExampleScenario.node[68].veinsmobility 	stopTime 	350
scalar RSUExampleScenario.node[68].veinsmobility 	minSpeed 	0
scalar RSUExampleScenario.node[68].veinsmobility 	maxSpeed 	13.99960681305
scalar RSUExampleScenario.node[68].veinsmobility 	totalDistance 	892.40321915336
scalar RSUExampleScenario.node[68].veinsmobility 	totalCO2Emission 	322.02766005031
scalar RSUExampleScenario.node[69].veinsmobility 	startTime 	166.3
scalar RSUExampleScenario.node[69].veinsmobility 	totalTime 	183.7
scalar RSUExampleScenario.node[69].veinsmobility 	stopTime 	350
scalar RSUExampleScenario.node[69].veinsmobility 	minSpeed 	0
scalar RSUExampleScenario.node[69].veinsmobility 	maxSpeed 	13.999477584288
scalar RSUExampleScenario.node[69].veinsmobility 	totalDistance 	860.14883664872
scalar RSUExampleScenario.node[69].veinsmobility 	totalCO2Emission 	315.589285075
scalar RSUExampleScenario.node[7].veinsmobility 	startTime 	16.9
scalar RSUExampleScenario.node[7].veinsmobility 	totalTime 	333.1
scalar RSUExampleScenario.node[7].veinsmobility 	stopTime 	350
scalar RSUExampleScenario.node[7].veinsmobility 	minSpeed 	0
scalar RSUExampleScenario.node[7].veinsmobility 	maxSpeed 	13.999945738919
scalar RSUExampleScenario.node[7].veinsmobility 	totalDistance 	2888.8171631511
scalar RSUExampleScenario.node[7].veinsmobility 	totalCO2Emission 	681.20635104168
scalar RSUExampleScenario.node[70].veinsmobility 	startTime 	168.8
scalar RSUExampleScenario.node[70].veinsmobility 	totalTime 	181.2
scalar RSUExampleScenario.node[70].veinsmobility 	stopTime 	350
scalar RSUExampleScenario.node[70].veinsmobility 	minSpeed 	0
scalar RSUExampleScenario.node[70].veinsmobility 	maxSpeed 	13.999869471379
scalar RSUExampleScenario.node[70].veinsmobility 	totalDistance 	826.4845946609
scalar RSUExampleScenario.node[70].veinsmobility 	totalCO2Emission 	309.83392874531
scalar RSUExampleScenario.node[71].veinsmobility 	startTime 	171.2
scalar RSUExampleScenario.node[71].veinsmobility 	totalTime 	178.8
scalar RSUExampleScenario.node[71].veinsmobility 	stopTime 	350
scalar RSUExampleScenario.node[71].veinsmobility 	minSpeed 	0
scalar RSUExampleScenario.node[71].veinsmobility 	maxSpeed 	13.997964176175
scalar RSUExampleScenario.node[71].veinsmobility 	totalDistance 	793.75717586693
scalar RSUExampleScenario.node[71].veinsmobility 	totalCO2Emission 	305.67332534006
scalar RSUExampleScenario.node[72].veinsmobility 	startTime 	173.6
scalar RSUExampleScenario.node[72].veinsmobility 	totalTime 	176.4
scalar RSUExampleScenario.node[72].veinsmobility 	stopTime 	350
scalar RSUExampleScenario.node[72].veinsmobility 	minSpeed 	0
scalar RSUExampleScenario.node[72].veinsmobility 	maxSpeed 	13.999689221873
scalar RSUExampleScenario.node[72].veinsmobility 	totalDistance 	759.81426392186
scalar RSUExampleScenario.node[72].veinsmobility 	totalCO2Emission 	298.70023398955
scalar RSUExampleScenario.node[73].veinsmobility 	startTime 	176
scalar RSUExampleScenario.node[73].veinsmobility 	totalTime 	174
scalar RSUExampleScenario.node[73].veinsmobility 	stopTime 	350
scalar RSUExampleScenario.node[73].veinsmobility 	minSpeed 	0
scalar RSUExampleScenario.node[73].veinsmobility 	maxSpeed 	13.999845192188
scalar RSUExampleScenario.node[73].veinsmobility 	totalDistance 	727.44509042063
scalar RSUExampleScenario.node[73].veinsmobility 	totalCO2Emission 	294.59787295258
scalar RSUExampleScenario.node[74].veinsmobility 	startTime 	178.4
scalar RSUExampleScenario.node[74].veinsmobility 	totalTime 	171.6
scalar RSUExampleScenario.node[74].veinsmobility 	stopTime 	350
scalar RSUExampleScenario.node[74].veinsmobility 	minSpeed 	0
scalar RSUExampleScenario.node[74].veinsmobility 	maxSpeed 	13.999752398632
scalar RSUExampleScenario.node[74].veinsmobility 	totalDistance 	692.34640035031
scalar RSUExampleScenario.node[74].veinsmobility 	totalCO2Emission 	287.82022787336
scalar RSUExampleScenario.node[75].veinsmobility 	startTime 	180.8
scalar RSUExampleScenario.node[75].veinsmobility 	totalTime 	169.2
scalar RSUExampleScenario.node[75].veinsmobility 	stopTime 	350
scalar RSUExampleScenario.node[75].veinsmobility 	minSpeed 	0
scalar RSUExampleScenario.node[75].veinsmobility 	maxSpeed 	13.999766572826
scalar RSUExampleScenario.node[75].veinsmobility 	totalDistance 	658.93544318394
scalar RSUExampleScenario.node[75].veinsmobility 	totalCO2Emission 	282.01261193342
scalar RSUExampleScenario.node[76].veinsmobility 	startTime 	183.2
scalar RSUExampleScenario.node[76].veinsmobility 	totalTime 	166.8
scalar RSUExampleScenario.node[76].veinsmobility 	stopTime 	350
scalar RSUExampleScenario.node[76].veinsmobility 	minSpeed 	0
scalar RSUExampleScenario.node[76].veinsmobility 	maxSpeed 	13.999567521666
scalar RSUExampleScenario.node[76].veinsmobility 	totalDistance 	623.97089887987
scalar RSUExampleScenario.node[76].veinsmobility 	totalCO2Emission 	275.93857628309
scalar RSUExampleScenario.node[77].veinsmobility 	startTime 	185.6
scalar RSUExampleScenario.node[77].veinsmobility 	totalTime 	164.4
scalar RSUExampleScenario.node[77].veinsmobility 	stopTime 	350
scalar RSUExampleScenario.node[77].veinsmobility 	minSpeed 	0
scalar RSUExampleScenario.node[77].veinsmobility 	maxSpeed 	13.9993735953
scalar RSUExampleScenario.node[77].veinsmobility 	totalDistance 	590.24102732639
scalar RSUExampleScenario.node[77].veinsmobility 	totalCO2Emission 	271.44479803958
scalar RSUExampleScenario.node[78].veinsmobility 	startTime 	188
scalar RSUExampleScenario.node[78].veinsmobility 	totalTime 	162
scalar RSUExampleScenario.node[78].veinsmobility 	stopTime 	350
scalar RSUExampleScenario.node[78].veinsmobility 	minSpeed 	0
scalar RSUExampleScenario.node[78].veinsmobility 	maxSpeed 	13.99932072582
scalar RSUExampleScenario.node[78].veinsmobility 	totalDistance 	557.22113853925
scalar RSUExampleScenario.node[78].veinsmobility 	totalCO2Emission 	265.33894809634
scalar RSUExampleScenario.node[79].veinsmobility 	startTime 	190.4
scalar RSUExampleScenario.node[79].veinsmobility 	totalTime 	159.6
scalar RSUExampleScenario.node[79].veinsmobility 	stopTime 	350
scalar RSUExampleScenario.node[79].veinsmobility 	minSpeed 	0
scalar RSUExampleScenario.node[79].veinsmobility 	maxSpeed 	13.998843659598
scalar RSUExampleScenario.node[79].veinsmobility 	totalDistance 	523.93939209193
scalar RSUExampleScenario.node[79].veinsmobility 	totalCO2Emission 	260.66659314735
scalar RSUExampleScenario.node[8].veinsmobility 	startTime 	19.3
scalar RSUExampleScenario.node[8].veinsmobility 	totalTime 	330.7
scalar RSUExampleScenario.node[8].veinsmobility 	stopTime 	350
scalar RSUExampleScenario.node[8].veinsmobility 	minSpeed 	0
scalar RSUExampleScenario.node[8].veinsmobility 	maxSpeed 	13.999880710335
scalar RSUExampleScenario.node[8].veinsmobility 	totalDistance 	2855.2173867927
scalar RSUExampleScenario.node[8].veinsmobility 	totalCO2Emission 	673.87129255898
scalar RSUExampleScenario.node[80].veinsmobility 	startTime 	192.9
scalar RSUExampleScenario.node[80].veinsmobility 	totalTime 	157.1
scalar RSUExampleScenario.node[80].veinsmobility 	stopTime 	350
scalar RSUExampleScenario.node[80].veinsmobility 	minSpeed 	0
scalar RSUExampleScenario.node[80].veinsmobility 	maxSpeed 	13.999806035224
scalar RSUExampleScenario.node[80].veinsmobility 	totalDistance 	490.64516238627
scalar RSUExampleScenario.node[80].veinsmobility 	totalCO2Emission 	253.63915619372
scalar RSUExampleScenario.node[81].veinsmobility 	startTime 	195.3
scalar RSUExampleScenario.node[81].veinsmobility 	totalTime 	154.7
scalar RSUExampleScenario.node[81].veinsmobility 	stopTime 	350
scalar RSUExampleScenario.node[81].veinsmobility 	minSpeed 	0
scalar RSUExampleScenario.node[81].veinsmobility 	maxSpeed 	13.999011483975
scalar RSUExampleScenario.node[81].veinsmobility 	totalDistance 	457.24622926104
scalar RSUExampleScenario.node[81].veinsmobility 	totalCO2Emission 	246.85507822102
scalar RSUExampleScenario.node[82].veinsmobility 	startTime 	197.7
scalar RSUExampleScenario.node[82].veinsmobility 	totalTime 	152.3
scalar RSUExampleScenario.node[82].veinsmobility 	stopTime 	350
scalar RSUExampleScenario.node[82].veinsmobility 	minSpeed 	0
scalar RSUExampleScenario.node[82].veinsmobility 	maxSpeed 	13.999981785484
scalar RSUExampleScenario.node[82].veinsmobility 	totalDistance 	423.64859762625
scalar RSUExampleScenario.node[82].veinsmobility 	totalCO2Emission 	243.65670999713
scalar RSUExampleScenario.node[83].veinsmobility 	startTime 	200.1
scalar RSUExampleScenario.node[83].veinsmobility 	totalTime 	149.9
scalar RSUExampleScenario.node[83].veinsmobility 	stopTime 	350
scalar RSUExampleScenario.node[83].veinsmobility 	minSpeed 	0
scalar RSUExampleScenario.node[83].veinsmobility 	maxSpeed 	13.998670137939
scalar RSUExampleScenario.node[83].veinsmobility 	totalDistance 	391.32115726381
scalar RSUExampleScenario.node[83].veinsmobility 	totalCO2Emission 	236.79689557085
scalar RSUExampleScenario.node[84].veinsmobility 	startTime 	202.5
scalar RSUExampleScenario.node[84].veinsmobility 	totalTime 	147.5
scalar RSUExampleScenario.node[84].veinsmobility 	stopTime 	350
scalar RSUExampleScenario.node[84].veinsmobility 	minSpeed 	0
scalar RSUExampleScenario.node[84].veinsmobility 	maxSpeed 	13.99913659835
scalar RSUExampleScenario.node[84].veinsmobility 	totalDistance 	354.70726525799
scalar RSUExampleScenario.node[84].veinsmobility 	totalCO2Emission 	231.23852860847
scalar RSUExampleScenario.node[85].veinsmobility 	startTime 	204.9
scalar RSUExampleScenario.node[85].veinsmobility 	totalTime 	145.1
scalar RSUExampleScenario.node[85].veinsmobility 	stopTime 	350
scalar RSUExampleScenario.node[85].veinsmobility 	minSpeed 	0
scalar RSUExampleScenario.node[85].veinsmobility 	maxSpeed 	13.999767072399
scalar RSUExampleScenario.node[85].veinsmobility 	totalDistance 	321.78838923913
scalar RSUExampleScenario.node[85].veinsmobility 	totalCO2Emission 	225.32937729651
scalar RSUExampleScenario.node[86].veinsmobility 	startTime 	207.3
scalar RSUExampleScenario.node[86].veinsmobility 	totalTime 	142.7
scalar RSUExampleScenario.node[86].veinsmobility 	stopTime 	350
scalar RSUExampleScenario.node[86].veinsmobility 	minSpeed 	0
scalar RSUExampleScenario.node[86].veinsmobility 	maxSpeed 	13.991969122593
scalar RSUExampleScenario.node[86].veinsmobility 	totalDistance 	290.45536448593
scalar RSUExampleScenario.node[86].veinsmobility 	totalCO2Emission 	220.14395684912
scalar RSUExampleScenario.node[87].veinsmobility 	startTime 	209.7
scalar RSUExampleScenario.node[87].veinsmobility 	totalTime 	140.3
scalar RSUExampleScenario.node[87].veinsmobility 	stopTime 	350
scalar RSUExampleScenario.node[87].veinsmobility 	minSpeed 	0
scalar RSUExampleScenario.node[87].veinsmobility 	maxSpeed 	13.835397184207
scalar RSUExampleScenario.node[87].veinsmobility 	totalDistance 	248.65960685887
scalar RSUExampleScenario.node[87].veinsmobility 	totalCO2Emission 	201.47831657551
scalar RSUExampleScenario.node[88].veinsmobility 	startTime 	212.1
scalar RSUExampleScenario.node[88].veinsmobility 	totalTime 	137.9
scalar RSUExampleScenario.node[88].veinsmobility 	stopTime 	3