version 2
run statistic-754-20150312-05:11:14-9828
attr c 9
attr configname statistic
attr datetime 20150312-05:11:14
attr experiment statistic
attr inifile omnetpp.ini
attr iterationvars "$p=1/10, $c=9"
attr iterationvars2 "$p=1/10, $c=9, $repetition=54"
attr measurement "$p=1/10, $c=9"
attr network RSUExampleScenario
attr p 1/10
attr processid 9828
attr repetition 54
attr replication #54
attr resultdir results
attr runnumber 754
attr seedset 754

scalar . 	c 	9
scalar RSUExampleScenario.rsu[0].appl 	NumberofCH 	10
scalar RSUExampleScenario.rsu[0].appl 	NumberofON 	74
scalar RSUExampleScenario.rsu[0].appl 	NumberofFN 	16
scalar RSUExampleScenario.rsu[0].appl 	meanClusterNodes 	7.4
scalar RSUExampleScenario.rsu[0].appl 	varClusterNodes 	1.9595917942265
scalar RSUExampleScenario.rsu[0].appl 	sumCHutility 	376.5165653781
scalar RSUExampleScenario.rsu[0].appl 	meanCHutility 	37.65165653781
scalar RSUExampleScenario.rsu[0].appl 	varCHutility 	1.4323407012494
scalar RSUExampleScenario.rsu[0].appl 	sumDiffCHutility 	-33.534722315425
scalar RSUExampleScenario.rsu[0].appl 	meanDiffCHutility 	-3.3534722315425
scalar RSUExampleScenario.rsu[0].appl 	varDiffCHutility 	1.3069792513673
scalar RSUExampleScenario.rsu[0].appl 	expectedCHutility 	342.98184306268
scalar RSUExampleScenario.rsu[0].appl 	meanExpectedCHutility 	34.298184306268
scalar RSUExampleScenario.rsu[0].appl 	varExpectedCHutility 	1.958542202656
