version 2
run statistic-842-20150312-05:45:50-9272
attr c 10
attr configname statistic
attr datetime 20150312-05:45:50
attr experiment statistic
attr inifile omnetpp.ini
attr iterationvars "$p=1/10, $c=10"
attr iterationvars2 "$p=1/10, $c=10, $repetition=42"
attr measurement "$p=1/10, $c=10"
attr network RSUExampleScenario
attr p 1/10
attr processid 9272
attr repetition 42
attr replication #42
attr resultdir results
attr runnumber 842
attr seedset 842

scalar . 	c 	10
scalar RSUExampleScenario.rsu[0].appl 	NumberofCH 	12
scalar RSUExampleScenario.rsu[0].appl 	NumberofON 	72
scalar RSUExampleScenario.rsu[0].appl 	NumberofFN 	16
scalar RSUExampleScenario.rsu[0].appl 	meanClusterNodes 	6
scalar RSUExampleScenario.rsu[0].appl 	varClusterNodes 	3.4156502553199
scalar RSUExampleScenario.rsu[0].appl 	sumCHutility 	462.95393396775
scalar RSUExampleScenario.rsu[0].appl 	meanCHutility 	38.579494497313
scalar RSUExampleScenario.rsu[0].appl 	varCHutility 	2.2157909820133
scalar RSUExampleScenario.rsu[0].appl 	sumDiffCHutility 	-55.196291749057
scalar RSUExampleScenario.rsu[0].appl 	meanDiffCHutility 	-4.599690979088
scalar RSUExampleScenario.rsu[0].appl 	varDiffCHutility 	2.1715544276209
scalar RSUExampleScenario.rsu[0].appl 	expectedCHutility 	407.7576422187
scalar RSUExampleScenario.rsu[0].appl 	meanExpectedCHutility 	33.979803518225
scalar RSUExampleScenario.rsu[0].appl 	varExpectedCHutility 	1.7239437215688
