version 2
run statistic7-670-20150316-08:58:29-7248
attr c 7
attr configname statistic7
attr datetime 20150316-08:58:29
attr experiment statistic7
attr inifile omnetpp.ini
attr iterationvars "$p=1/2, $c=7"
attr iterationvars2 "$p=1/2, $c=7, $repetition=70"
attr measurement "$p=1/2, $c=7"
attr network RSUExampleScenario
attr p 1/2
attr processid 7248
attr repetition 70
attr replication #70
attr resultdir results
attr runnumber 670
attr seedset 670

scalar . 	c 	7
scalar RSUExampleScenario.rsu[0].appl 	NumberofCH 	48
scalar RSUExampleScenario.rsu[0].appl 	NumberofON 	52
scalar RSUExampleScenario.rsu[0].appl 	NumberofFN 	0
scalar RSUExampleScenario.rsu[0].appl 	meanClusterNodes 	48
scalar RSUExampleScenario.rsu[0].appl 	varClusterNodes 	6.9282032302755
scalar RSUExampleScenario.rsu[0].appl 	sumCHutility 	1149.9056150849
scalar RSUExampleScenario.rsu[0].appl 	meanCHutility 	48
scalar RSUExampleScenario.rsu[0].appl 	varCHutility 	6.9282032302755
scalar RSUExampleScenario.rsu[0].appl 	sumDiffCHutility 	492.85101826934
scalar RSUExampleScenario.rsu[0].appl 	meanDiffCHutility 	48
scalar RSUExampleScenario.rsu[0].appl 	varDiffCHutility 	6.9282032302755
scalar RSUExampleScenario.rsu[0].appl 	expectedCHutility 	1642.7566333543
scalar RSUExampleScenario.rsu[0].appl 	meanExpectedCHutility 	48
scalar RSUExampleScenario.rsu[0].appl 	varExpectedCHutility 	6.9282032302755
