version 2
run statisticRVV-152-20150327-08:57:06-6864
attr c 9
attr configname statisticRVV
attr datetime 20150327-08:57:06
attr experiment statisticRVV
attr inifile omnetpp.ini
attr iterationvars "$sc=\"erlangen-medium.launchd.xml\", $p=1/10, $c=9"
attr iterationvars2 "$sc=\"erlangen-medium.launchd.xml\", $p=1/10, $c=9, $repetition=2"
attr measurement "$sc=\"erlangen-medium.launchd.xml\", $p=1/10, $c=9"
attr network RSUExampleScenario
attr p 1/10
attr processid 6864
attr repetition 2
attr replication #2
attr resultdir results
attr runnumber 152
attr sc "\"erlangen-medium.launchd.xml\""
attr seedset 152

scalar . 	c 	9
scalar RSUExampleScenario.node[0].veinsmobility 	startTime 	0.1
scalar RSUExampleScenario.node[0].veinsmobility 	totalTime 	264.3
scalar RSUExampleScenario.node[0].veinsmobility 	stopTime 	264.5
scalar RSUExampleScenario.node[0].veinsmobility 	minSpeed 	0.24766653888393
scalar RSUExampleScenario.node[0].veinsmobility 	maxSpeed 	13.999969351215
scalar RSUExampleScenario.node[0].veinsmobility 	totalDistance 	3409.1713236982
scalar RSUExampleScenario.node[0].veinsmobility 	totalCO2Emission 	695.32380870591
scalar RSUExampleScenario.node[1].veinsmobility 	startTime 	3.1
scalar RSUExampleScenario.node[1].veinsmobility 	totalTime 	265.2
scalar RSUExampleScenario.node[1].veinsmobility 	stopTime 	268.4
scalar RSUExampleScenario.node[1].veinsmobility 	minSpeed 	0.25671182988421
scalar RSUExampleScenario.node[1].veinsmobility 	maxSpeed 	13.999980724137
scalar RSUExampleScenario.node[1].veinsmobility 	totalDistance 	3409.5938745914
scalar RSUExampleScenario.node[1].veinsmobility 	totalCO2Emission 	687.54583862819
scalar RSUExampleScenario.node[2].veinsmobility 	startTime 	6.1
scalar RSUExampleScenario.node[2].veinsmobility 	totalTime 	265.9
scalar RSUExampleScenario.node[2].veinsmobility 	stopTime 	272.1
scalar RSUExampleScenario.node[2].veinsmobility 	minSpeed 	0.25686240956769
scalar RSUExampleScenario.node[2].veinsmobility 	maxSpeed 	13.999997625325
scalar RSUExampleScenario.node[2].veinsmobility 	totalDistance 	3409.3719043546
scalar RSUExampleScenario.node[2].veinsmobility 	totalCO2Emission 	692.6760768656
scalar RSUExampleScenario.node[3].veinsmobility 	startTime 	9.1
scalar RSUExampleScenario.node[3].veinsmobility 	totalTime 	266.3
scalar RSUExampleScenario.node[3].veinsmobility 	stopTime 	275.5
scalar RSUExampleScenario.node[3].veinsmobility 	minSpeed 	0.24734619507566
scalar RSUExampleScenario.node[3].veinsmobility 	maxSpeed 	13.999863046666
scalar RSUExampleScenario.node[3].veinsmobility 	totalDistance 	3409.5074546939
scalar RSUExampleScenario.node[3].veinsmobility 	totalCO2Emission 	693.90283733793
scalar RSUExampleScenario.node[4].veinsmobility 	startTime 	12.1
scalar RSUExampleScenario.node[4].veinsmobility 	totalTime 	266.7
scalar RSUExampleScenario.node[4].veinsmobility 	stopTime 	278.9
scalar RSUExampleScenario.node[4].veinsmobility 	minSpeed 	0.25862827696954
scalar RSUExampleScenario.node[4].veinsmobility 	maxSpeed 	13.999995300986
scalar RSUExampleScenario.node[4].veinsmobility 	totalDistance 	3409.6808361808
scalar RSUExampleScenario.node[4].veinsmobility 	totalCO2Emission 	696.10914360209
scalar RSUExampleScenario.node[5].veinsmobility 	startTime 	15.1
scalar RSUExampleScenario.node[5].veinsmobility 	totalTime 	266.8
scalar RSUExampleScenario.node[5].veinsmobility 	stopTime 	282
scalar RSUExampleScenario.node[5].veinsmobility 	minSpeed 	0.24708786358894
scalar RSUExampleScenario.node[5].veinsmobility 	maxSpeed 	13.999939185143
scalar RSUExampleScenario.node[5].veinsmobility 	totalDistance 	3413.8795520929
scalar RSUExampleScenario.node[5].veinsmobility 	totalCO2Emission 	694.94091026694
scalar RSUExampleScenario.node[6].veinsmobility 	startTime 	18.1
scalar RSUExampleScenario.node[6].veinsmobility 	totalTime 	267
scalar RSUExampleScenario.node[6].veinsmobility 	stopTime 	285.2
scalar RSUExampleScenario.node[6].veinsmobility 	minSpeed 	0.24953606103291
scalar RSUExampleScenario.node[6].veinsmobility 	maxSpeed 	13.999915349016
scalar RSUExampleScenario.node[6].veinsmobility 	totalDistance 	3409.3703417628
scalar RSUExampleScenario.node[6].veinsmobility 	totalCO2Emission 	692.24625801876
scalar RSUExampleScenario.node[7].veinsmobility 	startTime 	21.1
scalar RSUExampleScenario.node[7].veinsmobility 	totalTime 	267.1
scalar RSUExampleScenario.node[7].veinsmobility 	stopTime 	288.3
scalar RSUExampleScenario.node[7].veinsmobility 	minSpeed 	0.25085545218759
scalar RSUExampleScenario.node[7].veinsmobility 	maxSpeed 	13.999934672641
scalar RSUExampleScenario.node[7].veinsmobility 	totalDistance 	3413.8968184346
scalar RSUExampleScenario.node[7].veinsmobility 	totalCO2Emission 	696.26323039046
scalar RSUExampleScenario.node[8].veinsmobility 	startTime 	24.1
scalar RSUExampleScenario.node[8].veinsmobility 	totalTime 	267.1
scalar RSUExampleScenario.node[8].veinsmobility 	stopTime 	291.3
scalar RSUExampleScenario.node[8].veinsmobility 	minSpeed 	0.24945099099423
scalar RSUExampleScenario.node[8].veinsmobility 	maxSpeed 	13.999868485581
scalar RSUExampleScenario.node[8].veinsmobility 	totalDistance 	3409.2415527498
scalar RSUExampleScenario.node[8].veinsmobility 	totalCO2Emission 	689.37173974196
scalar RSUExampleScenario.node[9].veinsmobility 	startTime 	27.1
scalar RSUExampleScenario.node[9].veinsmobility 	totalTime 	267.1
scalar RSUExampleScenario.node[9].veinsmobility 	stopTime 	294.3
scalar RSUExampleScenario.node[9].veinsmobility 	minSpeed 	0.25698407582333
scalar RSUExampleScenario.node[9].veinsmobility 	maxSpeed 	13.999903812041
scalar RSUExampleScenario.node[9].veinsmobility 	totalDistance 	3413.7410758152
scalar RSUExampleScenario.node[9].veinsmobility 	totalCO2Emission 	691.97106743175
scalar RSUExampleScenario.node[10].veinsmobility 	startTime 	30.1
scalar RSUExampleScenario.node[10].veinsmobility 	totalTime 	267.2
scalar RSUExampleScenario.node[10].veinsmobility 	stopTime 	297.4
scalar RSUExampleScenario.node[10].veinsmobility 	minSpeed 	0.24801873456314
scalar RSUExampleScenario.node[10].veinsmobility 	maxSpeed 	13.999923407957
scalar RSUExampleScenario.node[10].veinsmobility 	totalDistance 	3409.734990737
scalar RSUExampleScenario.node[10].veinsmobility 	totalCO2Emission 	694.27254346005
scalar RSUExampleScenario.node[11].veinsmobility 	startTime 	33.1
scalar RSUExampleScenario.node[11].veinsmobility 	totalTime 	267.2
scalar RSUExampleScenario.node[11].veinsmobility 	stopTime 	300.4
scalar RSUExampleScenario.node[11].veinsmobility 	minSpeed 	0.25938636333449
scalar RSUExampleScenario.node[11].veinsmobility 	maxSpeed 	13.999957233851
scalar RSUExampleScenario.node[11].veinsmobility 	totalDistance 	3413.6114927288
scalar RSUExampleScenario.node[11].veinsmobility 	totalCO2Emission 	693.1643339937
scalar RSUExampleScenario.node[12].veinsmobility 	startTime 	36.1
scalar RSUExampleScenario.node[12].veinsmobility 	totalTime 	267.2
scalar RSUExampleScenario.node[12].veinsmobility 	stopTime 	303.4
scalar RSUExampleScenario.node[12].veinsmobility 	minSpeed 	0.24752341083903
scalar RSUExampleScenario.node[12].veinsmobility 	maxSpeed 	13.999980785642
scalar RSUExampleScenario.node[12].veinsmobility 	totalDistance 	3409.3951655003
scalar RSUExampleScenario.node[12].veinsmobility 	totalCO2Emission 	691.27575124723
scalar RSUExampleScenario.node[13].veinsmobility 	startTime 	39.1
scalar RSUExampleScenario.node[13].veinsmobility 	totalTime 	267.2
scalar RSUExampleScenario.node[13].veinsmobility 	stopTime 	306.4
scalar RSUExampleScenario.node[13].veinsmobility 	minSpeed 	0.25524466602923
scalar RSUExampleScenario.node[13].veinsmobility 	maxSpeed 	13.999972887877
scalar RSUExampleScenario.node[13].veinsmobility 	totalDistance 	3413.542047879
scalar RSUExampleScenario.node[13].veinsmobility 	totalCO2Emission 	690.81076312546
scalar RSUExampleScenario.node[14].veinsmobility 	startTime 	42.1
scalar RSUExampleScenario.node[14].veinsmobility 	totalTime 	267.2
scalar RSUExampleScenario.node[14].veinsmobility 	stopTime 	309.4
scalar RSUExampleScenario.node[14].veinsmobility 	minSpeed 	0.25204794788687
scalar RSUExampleScenario.node[14].veinsmobility 	maxSpeed 	13.999980547009
scalar RSUExampleScenario.node[14].veinsmobility 	totalDistance 	3409.7048515132
scalar RSUExampleScenario.node[14].veinsmobility 	totalCO2Emission 	691.33536140047
scalar RSUExampleScenario.node[15].veinsmobility 	startTime 	45.1
scalar RSUExampleScenario.node[15].veinsmobility 	totalTime 	267.2
scalar RSUExampleScenario.node[15].veinsmobility 	stopTime 	312.4
scalar RSUExampleScenario.node[15].veinsmobility 	minSpeed 	0.25600847988366
scalar RSUExampleScenario.node[15].veinsmobility 	maxSpeed 	13.99998372548
scalar RSUExampleScenario.node[15].veinsmobility 	totalDistance 	3413.4454113703
scalar RSUExampleScenario.node[15].veinsmobility 	totalCO2Emission 	689.88882235106
scalar RSUExampleScenario.node[16].veinsmobility 	startTime 	48.1
scalar RSUExampleScenario.node[16].veinsmobility 	totalTime 	267.2
scalar RSUExampleScenario.node[16].veinsmobility 	stopTime 	315.4
scalar RSUExampleScenario.node[16].veinsmobility 	minSpeed 	0.25654973507929
scalar RSUExampleScenario.node[16].veinsmobility 	maxSpeed 	13.999887402314
scalar RSUExampleScenario.node[16].veinsmobility 	totalDistance 	3409.8442488603
scalar RSUExampleScenario.node[16].veinsmobility 	totalCO2Emission 	696.46893056962
scalar RSUExampleScenario.node[17].veinsmobility 	startTime 	51.1
scalar RSUExampleScenario.node[17].veinsmobility 	totalTime 	267.2
scalar RSUExampleScenario.node[17].veinsmobility 	stopTime 	318.4
scalar RSUExampleScenario.node[17].veinsmobility 	minSpeed 	0.24891430386389
scalar RSUExampleScenario.node[17].veinsmobility 	maxSpeed 	13.999967520668
scalar RSUExampleScenario.node[17].veinsmobility 	totalDistance 	3413.9688335216
scalar RSUExampleScenario.node[17].veinsmobility 	totalCO2Emission 	690.9307775545
scalar RSUExampleScenario.node[18].veinsmobility 	startTime 	54.1
scalar RSUExampleScenario.node[18].veinsmobility 	totalTime 	267.3
scalar RSUExampleScenario.node[18].veinsmobility 	stopTime 	321.5
scalar RSUExampleScenario.node[18].veinsmobility 	minSpeed 	0.25127347960533
scalar RSUExampleScenario.node[18].veinsmobility 	maxSpeed 	13.999967646583
scalar RSUExampleScenario.node[18].veinsmobility 	totalDistance 	3409.6767814385
scalar RSUExampleScenario.node[18].veinsmobility 	totalCO2Emission 	687.53186397628
scalar RSUExampleScenario.node[19].veinsmobility 	startTime 	57.1
scalar RSUExampleScenario.node[19].veinsmobility 	totalTime 	267.3
scalar RSUExampleScenario.node[19].veinsmobility 	stopTime 	324.5
scalar RSUExampleScenario.node[19].veinsmobility 	minSpeed 	0.25823866014672
scalar RSUExampleScenario.node[19].veinsmobility 	maxSpeed 	13.999951057427
scalar RSUExampleScenario.node[19].veinsmobility 	totalDistance 	3413.5014496177
scalar RSUExampleScenario.node[19].veinsmobility 	totalCO2Emission 	690.38202961837
scalar RSUExampleScenario.node[20].veinsmobility 	startTime 	60.1
scalar RSUExampleScenario.node[20].veinsmobility 	totalTime 	267.3
scalar RSUExampleScenario.node[20].veinsmobility 	stopTime 	327.5
scalar RSUExampleScenario.node[20].veinsmobility 	minSpeed 	0.25384564076597
scalar RSUExampleScenario.node[20].veinsmobility 	maxSpeed 	13.999709350748
scalar RSUExampleScenario.node[20].veinsmobility 	totalDistance 	3409.4596920078
scalar RSUExampleScenario.node[20].veinsmobility 	totalCO2Emission 	693.4304983257
scalar RSUExampleScenario.node[21].veinsmobility 	startTime 	63.1
scalar RSUExampleScenario.node[21].veinsmobility 	totalTime 	267.3
scalar RSUExampleScenario.node[21].veinsmobility 	stopTime 	330.5
scalar RSUExampleScenario.node[21].veinsmobility 	minSpeed 	0.25276062138588
scalar RSUExampleScenario.node[21].veinsmobility 	maxSpeed 	13.999998885049
scalar RSUExampleScenario.node[21].veinsmobility 	totalDistance 	3413.6900650198
scalar RSUExampleScenario.node[21].veinsmobility 	totalCO2Emission 	691.17647925811
scalar RSUExampleScenario.node[22].veinsmobility 	startTime 	66.1
scalar RSUExampleScenario.node[22].veinsmobility 	totalTime 	267.3
scalar RSUExampleScenario.node[22].veinsmobility 	stopTime 	333.5
scalar RSUExampleScenario.node[22].veinsmobility 	minSpeed 	0.25989206822333
scalar RSUExampleScenario.node[22].veinsmobility 	maxSpeed 	13.999946982509
scalar RSUExampleScenario.node[22].veinsmobility 	totalDistance 	3409.5214192313
scalar RSUExampleScenario.node[22].veinsmobility 	totalCO2Emission 	690.0089921614
scalar RSUExampleScenario.node[23].veinsmobility 	startTime 	69.1
scalar RSUExampleScenario.node[23].veinsmobility 	totalTime 	267.4
scalar RSUExampleScenario.node[23].veinsmobility 	stopTime 	336.6
scalar RSUExampleScenario.node[23].veinsmobility 	minSpeed 	0.2556576427375
scalar RSUExampleScenario.node[23].veinsmobility 	maxSpeed 	13.999999062691
scalar RSUExampleScenario.node[23].veinsmobility 	totalDistance 	3414.142656288
scalar RSUExampleScenario.node[23].veinsmobility 	totalCO2Emission 	691.38415717441
scalar RSUExampleScenario.node[24].veinsmobility 	startTime 	72.1
scalar RSUExampleScenario.node[24].veinsmobility 	totalTime 	267.5
scalar RSUExampleScenario.node[24].veinsmobility 	stopTime 	339.7
scalar RSUExampleScenario.node[24].veinsmobility 	minSpeed 	0.25937842988712
scalar RSUExampleScenario.node[24].veinsmobility 	maxSpeed 	13.999933974238
scalar RSUExampleScenario.node[24].veinsmobility 	totalDistance 	3409.9384160628
scalar RSUExampleScenario.node[24].veinsmobility 	totalCO2Emission 	690.52692321472
scalar RSUExampleScenario.node[25].veinsmobility 	startTime 	75.1
scalar RSUExampleScenario.node[25].veinsmobility 	totalTime 	267.6
scalar RSUExampleScenario.node[25].veinsmobility 	stopTime 	342.8
scalar RSUExampleScenario.node[25].veinsmobility 	minSpeed 	0.25387902169977
scalar RSUExampleScenario.node[25].veinsmobility 	maxSpeed 	13.999886092013
scalar RSUExampleScenario.node[25].veinsmobility 	totalDistance 	3413.873401336
scalar RSUExampleScenario.node[25].veinsmobility 	totalCO2Emission 	689.58799147406
scalar RSUExampleScenario.node[26].veinsmobility 	startTime 	78.1
scalar RSUExampleScenario.node[26].veinsmobility 	totalTime 	267.7
scalar RSUExampleScenario.node[26].veinsmobility 	stopTime 	345.9
scalar RSUExampleScenario.node[26].veinsmobility 	minSpeed 	0.25834687874885
scalar RSUExampleScenario.node[26].veinsmobility 	maxSpeed 	13.999979056069
scalar RSUExampleScenario.node[26].veinsmobility 	totalDistance 	3409.4493090519
scalar RSUExampleScenario.node[26].veinsmobility 	totalCO2Emission 	694.45903967672
scalar RSUExampleScenario.node[27].veinsmobility 	startTime 	81.1
scalar RSUExampleScenario.node[27].veinsmobility 	totalTime 	267.8
scalar RSUExampleScenario.node[27].veinsmobility 	stopTime 	349
scalar RSUExampleScenario.node[27].veinsmobility 	minSpeed 	0.2587285015278
scalar RSUExampleScenario.node[27].veinsmobility 	maxSpeed 	13.999975945398
scalar RSUExampleScenario.node[27].veinsmobility 	totalDistance 	3413.4210823289
scalar RSUExampleScenario.node[27].veinsmobility 	totalCO2Emission 	691.35897275161
scalar RSUExampleScenario.node[28].veinsmobility 	startTime 	84.1
scalar RSUExampleScenario.node[28].veinsmobility 	totalTime 	268
scalar RSUExampleScenario.node[28].veinsmobility 	stopTime 	352.2
scalar RSUExampleScenario.node[28].veinsmobility 	minSpeed 	0.25544093536423
scalar RSUExampleScenario.node[28].veinsmobility 	maxSpeed 	13.999943379106
scalar RSUExampleScenario.node[28].veinsmobility 	totalDistance 	3409.7319792669
scalar RSUExampleScenario.node[28].veinsmobility 	totalCO2Emission 	695.29385583345
scalar RSUExampleScenario.node[29].veinsmobility 	startTime 	87.1
scalar RSUExampleScenario.node[29].veinsmobility 	totalTime 	268.2
scalar RSUExampleScenario.node[29].veinsmobility 	stopTime 	355.4
scalar RSUExampleScenario.node[29].veinsmobility 	minSpeed 	0.25255135680689
scalar RSUExampleScenario.node[29].veinsmobility 	maxSpeed 	13.999990103277
scalar RSUExampleScenario.node[29].veinsmobility 	totalDistance 	3413.7777356455
scalar RSUExampleScenario.node[29].veinsmobility 	totalCO2Emission 	692.97980271343
scalar RSUExampleScenario.node[30].veinsmobility 	startTime 	90.1
scalar RSUExampleScenario.node[30].veinsmobility 	totalTime 	268.4
scalar RSUExampleScenario.node[30].veinsmobility 	stopTime 	358.6
scalar RSUExampleScenario.node[30].veinsmobility 	minSpeed 	0.24791450651619
scalar RSUExampleScenario.node[30].veinsmobility 	maxSpeed 	13.999912468533
scalar RSUExampleScenario.node[30].veinsmobility 	totalDistance 	3409.3930367272
scalar RSUExampleScenario.node[30].veinsmobility 	totalCO2Emission 	687.64017717722
scalar RSUExampleScenario.node[31].veinsmobility 	startTime 	93.1
scalar RSUExampleScenario.node[31].veinsmobility 	totalTime 	268.7
scalar RSUExampleScenario.node[31].veinsmobility 	stopTime 	361.9
scalar RSUExampleScenario.node[31].veinsmobility 	minSpeed 	0.25235915193544
scalar RSUExampleScenario.node[31].veinsmobility 	maxSpeed 	13.999937917551
scalar RSUExampleScenario.node[31].veinsmobility 	totalDistance 	3414.222758207
scalar RSUExampleScenario.node[31].veinsmobility 	totalCO2Emission 	688.55297544275
scalar RSUExampleScenario.node[32].veinsmobility 	startTime 	96.1
scalar RSUExampleScenario.node[32].veinsmobility 	totalTime 	269
scalar RSUExampleScenario.node[32].veinsmobility 	stopTime 	365.2
scalar RSUExampleScenario.node[32].veinsmobility 	minSpeed 	0.25133311622613
scalar RSUExampleScenario.node[32].veinsmobility 	maxSpeed 	13.999891001449
scalar RSUExampleScenario.node[32].veinsmobility 	totalDistance 	3409.5342045756
scalar RSUExampleScenario.node[32].veinsmobility 	totalCO2Emission 	691.87062046312
scalar RSUExampleScenario.node[33].veinsmobility 	startTime 	99.1
scalar RSUExampleScenario.node[33].veinsmobility 	totalTime 	269.4
scalar RSUExampleScenario.node[33].veinsmobility 	stopTime 	368.6
scalar RSUExampleScenario.node[33].veinsmobility 	minSpeed 	0.24930147321755
scalar RSUExampleScenario.node[33].veinsmobility 	maxSpeed 	13.999970266882
scalar RSUExampleScenario.node[33].veinsmobility 	totalDistance 	3414.2042536175
scalar RSUExampleScenario.node[33].veinsmobility 	totalCO2Emission 	693.81493955964
scalar RSUExampleScenario.node[34].veinsmobility 	startTime 	102.1
scalar RSUExampleScenario.node[34].veinsmobility 	totalTime 	269.9
scalar RSUExampleScenario.node[34].veinsmobility 	stopTime 	372.1
scalar RSUExampleScenario.node[34].veinsmobility 	minSpeed 	0.25984581681015
scalar RSUExampleScenario.node[34].veinsmobility 	maxSpeed 	13.999987402495
scalar RSUExampleScenario.node[34].veinsmobility 	totalDistance 	3410.0940172304
scalar RSUExampleScenario.node[34].veinsmobility 	totalCO2Emission 	692.9304185615
scalar RSUExampleScenario.node[35].veinsmobility 	startTime 	105.1
scalar RSUExampleScenario.node[35].veinsmobility 	totalTime 	270.4
scalar RSUExampleScenario.node[35].veinsmobility 	stopTime 	375.6
scalar RSUExampleScenario.node[35].veinsmobility 	minSpeed 	0.25047456874955
scalar RSUExampleScenario.node[35].veinsmobility 	maxSpeed 	13.999982468209
scalar RSUExampleScenario.node[35].veinsmobility 	totalDistance 	3413.7698976237
scalar RSUExampleScenario.node[35].veinsmobility 	totalCO2Emission 	688.88022076665
scalar RSUExampleScenario.node[36].veinsmobility 	startTime 	108.1
scalar RSUExampleScenario.node[36].veinsmobility 	totalTime 	271
scalar RSUExampleScenario.node[36].veinsmobility 	stopTime 	379.2
scalar RSUExampleScenario.node[36].veinsmobility 	minSpeed 	0.2539161246724
scalar RSUExampleScenario.node[36].veinsmobility 	maxSpeed 	13.999989494376
scalar RSUExampleScenario.node[36].veinsmobility 	totalDistance 	3410.0394109763
scalar RSUExampleScenario.node[36].veinsmobility 	totalCO2Emission 	694.84409726178
scalar RSUExampleScenario.node[37].veinsmobility 	startTime 	111.1
scalar RSUExampleScenario.node[37].veinsmobility 	totalTime 	271.6
scalar RSUExampleScenario.node[37].veinsmobility 	stopTime 	382.8
scalar RSUExampleScenario.node[37].veinsmobility 	minSpeed 	0.25975703663402
scalar RSUExampleScenario.node[37].veinsmobility 	maxSpeed 	13.99999871921
scalar RSUExampleScenario.node[37].veinsmobility 	totalDistance 	3414.0686057294
scalar RSUExampleScenario.node[37].veinsmobility 	totalCO2Emission 	694.94805200457
scalar RSUExampleScenario.node[38].veinsmobility 	startTime 	114.1
scalar RSUExampleScenario.node[38].veinsmobility 	totalTime 	272.2
scalar RSUExampleScenario.node[38].veinsmobility 	stopTime 	386.4
scalar RSUExampleScenario.node[38].veinsmobility 	minSpeed 	0.25626510980423
scalar RSUExampleScenario.node[38].veinsmobility 	maxSpeed 	13.999991482226
scalar RSUExampleScenario.node[38].veinsmobility 	totalDistance 	3410.0092448353
scalar RSUExampleScenario.node[38].veinsmobility 	totalCO2Emission 	697.88850103072
scalar RSUExampleScenario.node[39].veinsmobility 	startTime 	117.1
scalar RSUExampleScenario.node[39].veinsmobility 	totalTime 	272.8
scalar RSUExampleScenario.node[39].veinsmobility 	stopTime 	390
scalar RSUExampleScenario.node[39].veinsmobility 	minSpeed 	0.24850679335673
scalar RSUExampleScenario.node[39].veinsmobility 	maxSpeed 	13.999905993303
scalar RSUExampleScenario.node[39].veinsmobility 	totalDistance 	3413.6123071246
scalar RSUExampleScenario.node[39].veinsmobility 	totalCO2Emission 	694.46742186751
scalar RSUExampleScenario.node[40].veinsmobility 	startTime 	120.1
scalar RSUExampleScenario.node[40].veinsmobility 	totalTime 	273.5
scalar RSUExampleScenario.node[40].veinsmobility 	stopTime 	393.7
scalar RSUExampleScenario.node[40].veinsmobility 	minSpeed 	0.25777365039545
scalar RSUExampleScenario.node[40].veinsmobility 	maxSpeed 	13.99990141412
scalar RSUExampleScenario.node[40].veinsmobility 	totalDistance 	3409.9457896452
scalar RSUExampleScenario.node[40].veinsmobility 	totalCO2Emission 	698.35194979004
scalar RSUExampleScenario.node[41].veinsmobility 	startTime 	123.1
scalar RSUExampleScenario.node[41].veinsmobility 	totalTime 	274.3
scalar RSUExampleScenario.node[41].veinsmobility 	stopTime 	397.5
scalar RSUExampleScenario.node[41].veinsmobility 	minSpeed 	0.25554081248236
scalar RSUExampleScenario.node[41].veinsmobility 	maxSpeed 	13.999984214308
scalar RSUExampleScenario.node[41].veinsmobility 	totalDistance 	3414.2733738926
scalar RSUExampleScenario.node[41].veinsmobility 	totalCO2Emission 	696.78274616176
scalar RSUExampleScenario.node[42].veinsmobility 	startTime 	126.1
scalar RSUExampleScenario.node[42].veinsmobility 	totalTime 	275
scalar RSUExampleScenario.node[42].veinsmobility 	stopTime 	401.2
scalar RSUExampleScenario.node[42].veinsmobility 	minSpeed 	0.25161370568629
scalar RSUExampleScenario.node[42].veinsmobility 	maxSpeed 	13.999715662561
scalar RSUExampleScenario.node[42].veinsmobility 	totalDistance 	3409.5227736809
scalar RSUExampleScenario.node[42].veinsmobility 	totalCO2Emission 	694.97144620972
scalar RSUExampleScenario.node[43].veinsmobility 	startTime 	129.1
scalar RSUExampleScenario.node[43].veinsmobility 	totalTime 	275.7
scalar RSUExampleScenario.node[43].veinsmobility 	stopTime 	404.9
scalar RSUExampleScenario.node[43].veinsmobility 	minSpeed 	0.24738375926577
scalar RSUExampleScenario.node[43].veinsmobility 	maxSpeed 	13.999765845365
scalar RSUExampleScenario.node[43].veinsmobility 	totalDistance 	3414.0238068448
scalar RSUExampleScenario.node[43].veinsmobility 	totalCO2Emission 	696.67976624202
scalar RSUExampleScenario.node[44].veinsmobility 	startTime 	132.1
scalar RSUExampleScenario.node[44].veinsmobility 	totalTime 	276.4
scalar RSUExampleScenario.node[44].veinsmobility 	stopTime 	408.6
scalar RSUExampleScenario.node[44].veinsmobility 	minSpeed 	0.25615067473031
scalar RSUExampleScenario.node[44].veinsmobility 	maxSpeed 	13.999884267671
scalar RSUExampleScenario.node[44].veinsmobility 	totalDistance 	3409.414281756
scalar RSUExampleScenario.node[44].veinsmobility 	totalCO2Emission 	699.0419045998
scalar RSUExampleScenario.node[45].veinsmobility 	startTime 	135.1
scalar RSUExampleScenario.node[45].veinsmobility 	totalTime 	277.1
scalar RSUExampleScenario.node[45].veinsmobility 	stopTime 	412.3
scalar RSUExampleScenario.node[45].veinsmobility 	minSpeed 	0.2540730364786
scalar RSUExampleScenario.node[45].veinsmobility 	maxSpeed 	13.999924855221
scalar RSUExampleScenario.node[45].veinsmobility 	totalDistance 	3414.0867101928
scalar RSUExampleScenario.node[45].veinsmobility 	totalCO2Emission 	701.01809728939
scalar RSUExampleScenario.node[46].veinsmobility 	startTime 	138.1
scalar RSUExampleScenario.node[46].veinsmobility 	totalTime 	277.8
scalar RSUExampleScenario.node[46].veinsmobility 	stopTime 	416
scalar RSUExampleScenario.node[46].veinsmobility 	minSpeed 	0.25182929759054
scalar RSUExampleScenario.node[46].veinsmobility 	maxSpeed 	13.999937770902
scalar RSUExampleScenario.node[46].veinsmobility 	totalDistance 	3409.8942022874
scalar RSUExampleScenario.node[46].veinsmobility 	totalCO2Emission 	700.17124686292
scalar RSUExampleScenario.node[47].veinsmobility 	startTime 	141.1
scalar RSUExampleScenario.node[47].veinsmobility 	totalTime 	278.4
scalar RSUExampleScenario.node[47].veinsmobility 	stopTime 	419.6
scalar RSUExampleScenario.node[47].veinsmobility 	minSpeed 	0.25460953789065
scalar RSUExampleScenario.node[47].veinsmobility 	maxSpeed 	13.999970253352
scalar RSUExampleScenario.node[47].veinsmobility 	totalDistance 	3409.4470658672
scalar RSUExampleScenario.node[47].veinsmobility 	totalCO2Emission 	702.6702797789
scalar RSUExampleScenario.node[48].veinsmobility 	startTime 	144.1
scalar RSUExampleScenario.node[48].veinsmobility 	totalTime 	279.1
scalar RSUExampleScenario.node[48].veinsmobility 	stopTime 	423.3
scalar RSUExampleScenario.node[48].veinsmobility 	minSpeed 	0.25220908217668
scalar RSUExampleScenario.node[48].veinsmobility 	maxSpeed 	13.999847190087
scalar RSUExampleScenario.node[48].veinsmobility 	totalDistance 	3413.85971524
scalar RSUExampleScenario.node[48].veinsmobility 	totalCO2Emission 	701.25312288191
scalar RSUExampleScenario.node[49].veinsmobility 	startTime 	147.1
scalar RSUExampleScenario.node[49].veinsmobility 	totalTime 	279.8
scalar RSUExampleScenario.node[49].veinsmobility 	stopTime 	427
scalar RSUExampleScenario.node[49].veinsmobility 	minSpeed 	0.25178090824676
scalar RSUExampleScenario.node[49].veinsmobility 	maxSpeed 	13.99999879706
scalar RSUExampleScenario.node[49].veinsmobility 	totalDistance 	3409.6777090278
scalar RSUExampleScenario.node[49].veinsmobility 	totalCO2Emission 	702.04849320067
scalar RSUExampleScenario.node[50].veinsmobility 	startTime 	150.1
scalar RSUExampleScenario.node[50].veinsmobility 	totalTime 	280.4
scalar RSUExampleScenario.node[50].veinsmobility 	stopTime 	430.6
scalar RSUExampleScenario.node[50].veinsmobility 	minSpeed 	0.2522050730309
scalar RSUExampleScenario.node[50].veinsmobility 	maxSpeed 	13.999990801408
scalar RSUExampleScenario.node[50].veinsmobility 	totalDistance 	3414.0343745311
scalar RSUExampleScenario.node[50].veinsmobility 	totalCO2Emission 	706.10653915876
scalar RSUExampleScenario.node[51].veinsmobility 	startTime 	153.1
scalar RSUExampleScenario.node[51].veinsmobility 	totalTime 	281
scalar RSUExampleScenario.node[51].veinsmobility 	stopTime 	434.2
scalar RSUExampleScenario.node[51].veinsmobility 	minSpeed 	0.24753938034526
scalar RSUExampleScenario.node[51].veinsmobility 	maxSpeed 	13.999923294119
scalar RSUExampleScenario.node[51].veinsmobility 	totalDistance 	3409.6229330246
scalar RSUExampleScenario.node[51].veinsmobility 	totalCO2Emission 	704.85899247364
scalar RSUExampleScenario.node[52].veinsmobility 	startTime 	156.1
scalar RSUExampleScenario.node[52].veinsmobility 	totalTime 	281.6
scalar RSUExampleScenario.node[52].veinsmobility 	stopTime 	437.8
scalar RSUExampleScenario.node[52].veinsmobility 	minSpeed 	0.25698629522324
scalar RSUExampleScenario.node[52].veinsmobility 	maxSpeed 	13.999873202876
scalar RSUExampleScenario.node[52].veinsmobility 	totalDistance 	3413.8810297201
scalar RSUExampleScenario.node[52].veinsmobility 	totalCO2Emission 	704.71597475046
scalar RSUExampleScenario.node[53].veinsmobility 	startTime 	159.1
scalar RSUExampleScenario.node[53].veinsmobility 	totalTime 	282.3
scalar RSUExampleScenario.node[53].veinsmobility 	stopTime 	441.5
scalar RSUExampleScenario.node[53].veinsmobility 	minSpeed 	0.24966962166177
scalar RSUExampleScenario.node[53].veinsmobility 	maxSpeed 	13.999862484317
scalar RSUExampleScenario.node[53].veinsmobility 	totalDistance 	3409.9313913363
scalar RSUExampleScenario.node[53].veinsmobility 	totalCO2Emission 	705.05496398139
scalar RSUExampleScenario.node[54].veinsmobility 	startTime 	162.1
scalar RSUExampleScenario.node[54].veinsmobility 	totalTime 	282.9
scalar RSUExampleScenario.node[54].veinsmobility 	stopTime 	445.1
scalar RSUExampleScenario.node[54].veinsmobility 	minSpeed 	0.25391218841798
scalar RSUExampleScenario.node[54].veinsmobility 	maxSpeed 	13.999856238186
scalar RSUExampleScenario.node[54].veinsmobility 	totalDistance 	3413.7166821957
scalar RSUExampleScenario.node[54].veinsmobility 	totalCO2Emission 	699.69807244413
scalar RSUExampleScenario.node[55].veinsmobility 	startTime 	165.1
scalar RSUExampleScenario.node[55].veinsmobility 	totalTime 	283.6
scalar RSUExampleScenario.node[55].veinsmobility 	stopTime 	448.8
scalar RSUExampleScenario.node[55].veinsmobility 	minSpeed 	0.25087826497015
scalar RSUExampleScenario.node[55].veinsmobility 	maxSpeed 	13.999982822102
scalar RSUExampleScenario.node[55].veinsmobility 	totalDistance 	3409.8626714432
scalar RSUExampleScenario.node[55].veinsmobility 	totalCO2Emission 	708.26490091648
scalar RSUExampleScenario.node[56].veinsmobility 	startTime 	168.1
scalar RSUExampleScenario.node[56].veinsmobility 	totalTime 	284.3
scalar RSUExampleScenario.node[56].veinsmobility 	stopTime 	452.5
scalar RSUExampleScenario.node[56].veinsmobility 	minSpeed 	0.24709825061355
scalar RSUExampleScenario.node[56].veinsmobility 	maxSpeed 	13.999884367615
scalar RSUExampleScenario.node[56].veinsmobility 	totalDistance 	3413.5612187121
scalar RSUExampleScenario.node[56].veinsmobility 	totalCO2Emission 	707.34524515396
scalar RSUExampleScenario.node[57].veinsmobility 	startTime 	171.1
scalar RSUExampleScenario.node[57].veinsmobility 	totalTime 	284.9
scalar RSUExampleScenario.node[57].veinsmobility 	stopTime 	456.1
scalar RSUExampleScenario.node[57].veinsmobility 	minSpeed 	0.25975258315122
scalar RSUExampleScenario.node[57].veinsmobility 	maxSpeed 	13.999801774006
scalar RSUExampleScenario.node[57].veinsmobility 	totalDistance 	3409.8205550945
scalar RSUExampleScenario.node[57].veinsmobility 	totalCO2Emission 	702.79372853848
scalar RSUExampleScenario.node[58].veinsmobility 	startTime 	174.1
scalar RSUExampleScenario.node[58].veinsmobility 	totalTime 	285.6
scalar RSUExampleScenario.node[58].veinsmobility 	stopTime 	459.8
scalar RSUExampleScenario.node[58].veinsmobility 	minSpeed 	0.25603821998462
scalar RSUExampleScenario.node[58].veinsmobility 	maxSpeed 	13.999950903333
scalar RSUExampleScenario.node[58].veinsmobility 	totalDistance 	3413.8587881548
scalar RSUExampleScenario.node[58].veinsmobility 	totalCO2Emission 	706.00616967486
scalar RSUExampleScenario.node[59].veinsmobility 	startTime 	177.1
scalar RSUExampleScenario.node[59].veinsmobility 	totalTime 	286.3
scalar RSUExampleScenario.node[59].veinsmobility 	stopTime 	463.5
scalar RSUExampleScenario.node[59].veinsmobility 	minSpeed 	0.25875068123429
scalar RSUExampleScenario.node[59].veinsmobility 	maxSpeed 	13.99997918492
scalar RSUExampleScenario.node[59].veinsmobility 	totalDistance 	3410.0712737099
scalar RSUExampleScenario.node[59].veinsmobility 	totalCO2Emission 	709.27476602776
scalar RSUExampleScenario.node[60].veinsmobility 	startTime 	180.1
scalar RSUExampleScenario.node[60].veinsmobility 	totalTime 	287
scalar RSUExampleScenario.node[60].veinsmobility 	stopTime 	467.2
scalar RSUExampleScenario.node[60].veinsmobility 	minSpeed 	0.24770383512671
scalar RSUExampleScenario.node[60].veinsmobility 	maxSpeed 	13.999978946771
scalar RSUExampleScenario.node[60].veinsmobility 	totalDistance 	3414.2156747582
scalar RSUExampleScenario.node[60].veinsmobility 	totalCO2Emission 	709.31157234336
scalar RSUExampleScenario.node[61].veinsmobility 	startTime 	183.1
scalar RSUExampleScenario.node[61].veinsmobility 	totalTime 	287.6
scalar RSUExampleScenario.node[61].veinsmobility 	stopTime 	470.8
scalar RSUExampleScenario.node[61].veinsmobility 	minSpeed 	0.25496225450002
scalar RSUExampleScenario.node[61].veinsmobility 	maxSpeed 	13.999990413615
scalar RSUExampleScenario.node[61].veinsmobility 	totalDistance 	3409.4025820447
scalar RSUExampleScenario.node[61].veinsmobility 	totalCO2Emission 	708.52637484815
scalar RSUExampleScenario.node[62].veinsmobility 	startTime 	186.1
scalar RSUExampleScenario.node[62].veinsmobility 	totalTime 	288.3
scalar RSUExampleScenario.node[62].veinsmobility 