version 2
run statistic-1343-20150313-01:08:36-23404
attr c 15
attr configname statistic
attr datetime 20150313-01:08:36
attr experiment statistic
attr inifile omnetpp.ini
attr iterationvars "$p=1/10, $c=15"
attr iterationvars2 "$p=1/10, $c=15, $repetition=43"
attr measurement "$p=1/10, $c=15"
attr network RSUExampleScenario
attr p 1/10
attr processid 23404
attr repetition 43
attr replication #43
attr resultdir results
attr runnumber 1343
attr seedset 1343

scalar . 	c 	15
scalar RSUExampleScenario.rsu[0].appl 	NumberofCH 	13
scalar RSUExampleScenario.rsu[0].appl 	NumberofON 	87
scalar RSUExampleScenario.rsu[0].appl 	NumberofFN 	0
scalar RSUExampleScenario.rsu[0].appl 	meanClusterNodes 	13
scalar RSUExampleScenario.rsu[0].appl 	varClusterNodes 	3.605551275464
scalar RSUExampleScenario.rsu[0].appl 	sumCHutility 	463.19547496313
scalar RSUExampleScenario.rsu[0].appl 	meanCHutility 	13
scalar RSUExampleScenario.rsu[0].appl 	varCHutility 	3.605551275464
scalar RSUExampleScenario.rsu[0].appl 	sumDiffCHutility 	-18.968377674292
scalar RSUExampleScenario.rsu[0].appl 	meanDiffCHutility 	13
scalar RSUExampleScenario.rsu[0].appl 	varDiffCHutility 	3.605551275464
scalar RSUExampleScenario.rsu[0].appl 	expectedCHutility 	444.22709728884
scalar RSUExampleScenario.rsu[0].appl 	meanExpectedCHutility 	13
scalar RSUExampleScenario.rsu[0].appl 	varExpectedCHutility 	3.605551275464
