version 2
run statisticRVV-130-20150325-12:55:45-23656
attr c 15
attr configname statisticRVV
attr datetime 20150325-12:55:45
attr experiment statisticRVV
attr inifile omnetpp.ini
attr iterationvars "$sc=\"erlangen-medium.launchd.xml\", $p=1/15, $c=15"
attr iterationvars2 "$sc=\"erlangen-medium.launchd.xml\", $p=1/15, $c=15, $repetition=0"
attr measurement "$sc=\"erlangen-medium.launchd.xml\", $p=1/15, $c=15"
attr network RSUExampleScenario
attr p 1/15
attr processid 23656
attr repetition 0
attr replication #0
attr resultdir results
attr runnumber 130
attr sc "\"erlangen-medium.launchd.xml\""
attr seedset 130

scalar . 	c 	15
scalar RSUExampleScenario.node[0].veinsmobility 	startTime 	0.1
scalar RSUExampleScenario.node[0].veinsmobility 	totalTime 	264.2
scalar RSUExampleScenario.node[0].veinsmobility 	stopTime 	264.4
scalar RSUExampleScenario.node[0].veinsmobility 	minSpeed 	0.25815880651656
scalar RSUExampleScenario.node[0].veinsmobility 	maxSpeed 	13.999887218466
scalar RSUExampleScenario.node[0].veinsmobility 	totalDistance 	3409.0680227716
scalar RSUExampleScenario.node[0].veinsmobility 	totalCO2Emission 	691.84833745163
scalar RSUExampleScenario.node[1].veinsmobility 	startTime 	3.1
scalar RSUExampleScenario.node[1].veinsmobility 	totalTime 	265.4
scalar RSUExampleScenario.node[1].veinsmobility 	stopTime 	268.6
scalar RSUExampleScenario.node[1].veinsmobility 	minSpeed 	0.25435875073518
scalar RSUExampleScenario.node[1].veinsmobility 	maxSpeed 	13.999889247632
scalar RSUExampleScenario.node[1].veinsmobility 	totalDistance 	3409.4431540489
scalar RSUExampleScenario.node[1].veinsmobility 	totalCO2Emission 	691.19586458612
scalar RSUExampleScenario.node[2].veinsmobility 	startTime 	6.1
scalar RSUExampleScenario.node[2].veinsmobility 	totalTime 	265.9
scalar RSUExampleScenario.node[2].veinsmobility 	stopTime 	272.1
scalar RSUExampleScenario.node[2].veinsmobility 	minSpeed 	0.24955827011145
scalar RSUExampleScenario.node[2].veinsmobility 	maxSpeed 	13.999777597878
scalar RSUExampleScenario.node[2].veinsmobility 	totalDistance 	3409.5170841146
scalar RSUExampleScenario.node[2].veinsmobility 	totalCO2Emission 	693.62995123025
scalar RSUExampleScenario.node[3].veinsmobility 	startTime 	9.1
scalar RSUExampleScenario.node[3].veinsmobility 	totalTime 	266.3
scalar RSUExampleScenario.node[3].veinsmobility 	stopTime 	275.5
scalar RSUExampleScenario.node[3].veinsmobility 	minSpeed 	0.25000499132345
scalar RSUExampleScenario.node[3].veinsmobility 	maxSpeed 	13.999864411752
scalar RSUExampleScenario.node[3].veinsmobility 	totalDistance 	3409.3286144617
scalar RSUExampleScenario.node[3].veinsmobility 	totalCO2Emission 	689.45723357533
scalar RSUExampleScenario.node[4].veinsmobility 	startTime 	12.1
scalar RSUExampleScenario.node[4].veinsmobility 	totalTime 	266.7
scalar RSUExampleScenario.node[4].veinsmobility 	stopTime 	278.9
scalar RSUExampleScenario.node[4].veinsmobility 	minSpeed 	0.25223704372486
scalar RSUExampleScenario.node[4].veinsmobility 	maxSpeed 	13.999832652223
scalar RSUExampleScenario.node[4].veinsmobility 	totalDistance 	3413.9110811945
scalar RSUExampleScenario.node[4].veinsmobility 	totalCO2Emission 	691.34585061269
scalar RSUExampleScenario.node[5].veinsmobility 	startTime 	15.1
scalar RSUExampleScenario.node[5].veinsmobility 	totalTime 	266.8
scalar RSUExampleScenario.node[5].veinsmobility 	stopTime 	282
scalar RSUExampleScenario.node[5].veinsmobility 	minSpeed 	0.25710100473696
scalar RSUExampleScenario.node[5].veinsmobility 	maxSpeed 	13.999902864138
scalar RSUExampleScenario.node[5].veinsmobility 	totalDistance 	3409.6728743443
scalar RSUExampleScenario.node[5].veinsmobility 	totalCO2Emission 	694.92859132274
scalar RSUExampleScenario.node[6].veinsmobility 	startTime 	18.1
scalar RSUExampleScenario.node[6].veinsmobility 	totalTime 	267
scalar RSUExampleScenario.node[6].veinsmobility 	stopTime 	285.2
scalar RSUExampleScenario.node[6].veinsmobility 	minSpeed 	0.24950365593587
scalar RSUExampleScenario.node[6].veinsmobility 	maxSpeed 	13.999960081887
scalar RSUExampleScenario.node[6].veinsmobility 	totalDistance 	3414.1389060249
scalar RSUExampleScenario.node[6].veinsmobility 	totalCO2Emission 	692.19821783079
scalar RSUExampleScenario.node[7].veinsmobility 	startTime 	21.1
scalar RSUExampleScenario.node[7].veinsmobility 	totalTime 	267.1
scalar RSUExampleScenario.node[7].veinsmobility 	stopTime 	288.3
scalar RSUExampleScenario.node[7].veinsmobility 	minSpeed 	0.24760342295235
scalar RSUExampleScenario.node[7].veinsmobility 	maxSpeed 	13.99995902057
scalar RSUExampleScenario.node[7].veinsmobility 	totalDistance 	3409.4487950052
scalar RSUExampleScenario.node[7].veinsmobility 	totalCO2Emission 	690.57275446978
scalar RSUExampleScenario.node[8].veinsmobility 	startTime 	24.1
scalar RSUExampleScenario.node[8].veinsmobility 	totalTime 	267.1
scalar RSUExampleScenario.node[8].veinsmobility 	stopTime 	291.3
scalar RSUExampleScenario.node[8].veinsmobility 	minSpeed 	0.24972274529655
scalar RSUExampleScenario.node[8].veinsmobility 	maxSpeed 	13.999991478352
scalar RSUExampleScenario.node[8].veinsmobility 	totalDistance 	3413.6914698327
scalar RSUExampleScenario.node[8].veinsmobility 	totalCO2Emission 	689.12972177062
scalar RSUExampleScenario.node[9].veinsmobility 	startTime 	27.1
scalar RSUExampleScenario.node[9].veinsmobility 	totalTime 	267.1
scalar RSUExampleScenario.node[9].veinsmobility 	stopTime 	294.3
scalar RSUExampleScenario.node[9].veinsmobility 	minSpeed 	0.24973824989866
scalar RSUExampleScenario.node[9].veinsmobility 	maxSpeed 	13.999875611148
scalar RSUExampleScenario.node[9].veinsmobility 	totalDistance 	3409.3602032219
scalar RSUExampleScenario.node[9].veinsmobility 	totalCO2Emission 	691.8735852283
scalar RSUExampleScenario.node[10].veinsmobility 	startTime 	30.1
scalar RSUExampleScenario.node[10].veinsmobility 	totalTime 	267.1
scalar RSUExampleScenario.node[10].veinsmobility 	stopTime 	297.3
scalar RSUExampleScenario.node[10].veinsmobility 	minSpeed 	0.25511068537761
scalar RSUExampleScenario.node[10].veinsmobility 	maxSpeed 	13.999758474173
scalar RSUExampleScenario.node[10].veinsmobility 	totalDistance 	3413.4736887119
scalar RSUExampleScenario.node[10].veinsmobility 	totalCO2Emission 	693.3216546568
scalar RSUExampleScenario.node[11].veinsmobility 	startTime 	33.1
scalar RSUExampleScenario.node[11].veinsmobility 	totalTime 	267.1
scalar RSUExampleScenario.node[11].veinsmobility 	stopTime 	300.3
scalar RSUExampleScenario.node[11].veinsmobility 	minSpeed 	0.2498202926456
scalar RSUExampleScenario.node[11].veinsmobility 	maxSpeed 	13.999974575983
scalar RSUExampleScenario.node[11].veinsmobility 	totalDistance 	3409.4702543099
scalar RSUExampleScenario.node[11].veinsmobility 	totalCO2Emission 	693.70332849362
scalar RSUExampleScenario.node[12].veinsmobility 	startTime 	36.1
scalar RSUExampleScenario.node[12].veinsmobility 	totalTime 	267.1
scalar RSUExampleScenario.node[12].veinsmobility 	stopTime 	303.3
scalar RSUExampleScenario.node[12].veinsmobility 	minSpeed 	0.25336415214371
scalar RSUExampleScenario.node[12].veinsmobility 	maxSpeed 	13.999965020441
scalar RSUExampleScenario.node[12].veinsmobility 	totalDistance 	3413.7066039843
scalar RSUExampleScenario.node[12].veinsmobility 	totalCO2Emission 	690.5291162789
scalar RSUExampleScenario.node[13].veinsmobility 	startTime 	39.1
scalar RSUExampleScenario.node[13].veinsmobility 	totalTime 	267.1
scalar RSUExampleScenario.node[13].veinsmobility 	stopTime 	306.3
scalar RSUExampleScenario.node[13].veinsmobility 	minSpeed 	0.25322348695924
scalar RSUExampleScenario.node[13].veinsmobility 	maxSpeed 	13.999986735843
scalar RSUExampleScenario.node[13].veinsmobility 	totalDistance 	3409.3856796905
scalar RSUExampleScenario.node[13].veinsmobility 	totalCO2Emission 	694.14431836278
scalar RSUExampleScenario.node[14].veinsmobility 	startTime 	42.1
scalar RSUExampleScenario.node[14].veinsmobility 	totalTime 	267.1
scalar RSUExampleScenario.node[14].veinsmobility 	stopTime 	309.3
scalar RSUExampleScenario.node[14].veinsmobility 	minSpeed 	0.24788025852269
scalar RSUExampleScenario.node[14].veinsmobility 	maxSpeed 	13.999938113929
scalar RSUExampleScenario.node[14].veinsmobility 	totalDistance 	3413.4687080182
scalar RSUExampleScenario.node[14].veinsmobility 	totalCO2Emission 	693.15991015531
scalar RSUExampleScenario.node[15].veinsmobility 	startTime 	45.1
scalar RSUExampleScenario.node[15].veinsmobility 	totalTime 	267.1
scalar RSUExampleScenario.node[15].veinsmobility 	stopTime 	312.3
scalar RSUExampleScenario.node[15].veinsmobility 	minSpeed 	0.25139933055802
scalar RSUExampleScenario.node[15].veinsmobility 	maxSpeed 	13.999988596719
scalar RSUExampleScenario.node[15].veinsmobility 	totalDistance 	3409.744682809
scalar RSUExampleScenario.node[15].veinsmobility 	totalCO2Emission 	689.45117830161
scalar RSUExampleScenario.node[16].veinsmobility 	startTime 	48.1
scalar RSUExampleScenario.node[16].veinsmobility 	totalTime 	267.1
scalar RSUExampleScenario.node[16].veinsmobility 	stopTime 	315.3
scalar RSUExampleScenario.node[16].veinsmobility 	minSpeed 	0.2597011519447
scalar RSUExampleScenario.node[16].veinsmobility 	maxSpeed 	13.999881947478
scalar RSUExampleScenario.node[16].veinsmobility 	totalDistance 	3413.6402984429
scalar RSUExampleScenario.node[16].veinsmobility 	totalCO2Emission 	693.13484192951
scalar RSUExampleScenario.node[17].veinsmobility 	startTime 	51.1
scalar RSUExampleScenario.node[17].veinsmobility 	totalTime 	267.1
scalar RSUExampleScenario.node[17].veinsmobility 	stopTime 	318.3
scalar RSUExampleScenario.node[17].veinsmobility 	minSpeed 	0.25924158192822
scalar RSUExampleScenario.node[17].veinsmobility 	maxSpeed 	13.999957449601
scalar RSUExampleScenario.node[17].veinsmobility 	totalDistance 	3409.6710577938
scalar RSUExampleScenario.node[17].veinsmobility 	totalCO2Emission 	692.62265337648
scalar RSUExampleScenario.node[18].veinsmobility 	startTime 	54.1
scalar RSUExampleScenario.node[18].veinsmobility 	totalTime 	267.1
scalar RSUExampleScenario.node[18].veinsmobility 	stopTime 	321.3
scalar RSUExampleScenario.node[18].veinsmobility 	minSpeed 	0.25760057662101
scalar RSUExampleScenario.node[18].veinsmobility 	maxSpeed 	13.999990180309
scalar RSUExampleScenario.node[18].veinsmobility 	totalDistance 	3413.9529721498
scalar RSUExampleScenario.node[18].veinsmobility 	totalCO2Emission 	690.64257027921
scalar RSUExampleScenario.node[19].veinsmobility 	startTime 	57.1
scalar RSUExampleScenario.node[19].veinsmobility 	totalTime 	267.1
scalar RSUExampleScenario.node[19].veinsmobility 	stopTime 	324.3
scalar RSUExampleScenario.node[19].veinsmobility 	minSpeed 	0.25114379377477
scalar RSUExampleScenario.node[19].veinsmobility 	maxSpeed 	13.999996327434
scalar RSUExampleScenario.node[19].veinsmobility 	totalDistance 	3409.4200025519
scalar RSUExampleScenario.node[19].veinsmobility 	totalCO2Emission 	687.55730497862
scalar RSUExampleScenario.node[20].veinsmobility 	startTime 	60.1
scalar RSUExampleScenario.node[20].veinsmobility 	totalTime 	267.1
scalar RSUExampleScenario.node[20].veinsmobility 	stopTime 	327.3
scalar RSUExampleScenario.node[20].veinsmobility 	minSpeed 	0.24930268693948
scalar RSUExampleScenario.node[20].veinsmobility 	maxSpeed 	13.999990481476
scalar RSUExampleScenario.node[20].veinsmobility 	totalDistance 	3413.6396783691
scalar RSUExampleScenario.node[20].veinsmobility 	totalCO2Emission 	690.47138169899
scalar RSUExampleScenario.node[21].veinsmobility 	startTime 	63.1
scalar RSUExampleScenario.node[21].veinsmobility 	totalTime 	267.1
scalar RSUExampleScenario.node[21].veinsmobility 	stopTime 	330.3
scalar RSUExampleScenario.node[21].veinsmobility 	minSpeed 	0.25074763816549
scalar RSUExampleScenario.node[21].veinsmobility 	maxSpeed 	13.999901091221
scalar RSUExampleScenario.node[21].veinsmobility 	totalDistance 	3409.6078624421
scalar RSUExampleScenario.node[21].veinsmobility 	totalCO2Emission 	688.83457726276
scalar RSUExampleScenario.node[22].veinsmobility 	startTime 	66.1
scalar RSUExampleScenario.node[22].veinsmobility 	totalTime 	267.1
scalar RSUExampleScenario.node[22].veinsmobility 	stopTime 	333.3
scalar RSUExampleScenario.node[22].veinsmobility 	minSpeed 	0.24859529755544
scalar RSUExampleScenario.node[22].veinsmobility 	maxSpeed 	13.999892018635
scalar RSUExampleScenario.node[22].veinsmobility 	totalDistance 	3413.4363395724
scalar RSUExampleScenario.node[22].veinsmobility 	totalCO2Emission 	690.66057000499
scalar RSUExampleScenario.node[23].veinsmobility 	startTime 	69.1
scalar RSUExampleScenario.node[23].veinsmobility 	totalTime 	267.1
scalar RSUExampleScenario.node[23].veinsmobility 	stopTime 	336.3
scalar RSUExampleScenario.node[23].veinsmobility 	minSpeed 	0.24793000412942
scalar RSUExampleScenario.node[23].veinsmobility 	maxSpeed 	13.999989010028
scalar RSUExampleScenario.node[23].veinsmobility 	totalDistance 	3409.954719245
scalar RSUExampleScenario.node[23].veinsmobility 	totalCO2Emission 	689.89038472732
scalar RSUExampleScenario.node[24].veinsmobility 	startTime 	72.1
scalar RSUExampleScenario.node[24].veinsmobility 	totalTime 	267.1
scalar RSUExampleScenario.node[24].veinsmobility 	stopTime 	339.3
scalar RSUExampleScenario.node[24].veinsmobility 	minSpeed 	0.25933632925269
scalar RSUExampleScenario.node[24].veinsmobility 	maxSpeed 	13.999892820616
scalar RSUExampleScenario.node[24].veinsmobility 	totalDistance 	3409.5572013457
scalar RSUExampleScenario.node[24].veinsmobility 	totalCO2Emission 	690.27568456923
scalar RSUExampleScenario.node[25].veinsmobility 	startTime 	75.1
scalar RSUExampleScenario.node[25].veinsmobility 	totalTime 	267.1
scalar RSUExampleScenario.node[25].veinsmobility 	stopTime 	342.3
scalar RSUExampleScenario.node[25].veinsmobility 	minSpeed 	0.24806729976088
scalar RSUExampleScenario.node[25].veinsmobility 	maxSpeed 	13.999991646491
scalar RSUExampleScenario.node[25].veinsmobility 	totalDistance 	3413.6590651452
scalar RSUExampleScenario.node[25].veinsmobility 	totalCO2Emission 	694.50424848839
scalar RSUExampleScenario.node[26].veinsmobility 	startTime 	78.1
scalar RSUExampleScenario.node[26].veinsmobility 	totalTime 	267.1
scalar RSUExampleScenario.node[26].veinsmobility 	stopTime 	345.3
scalar RSUExampleScenario.node[26].veinsmobility 	minSpeed 	0.25881189265591
scalar RSUExampleScenario.node[26].veinsmobility 	maxSpeed 	13.999784896306
scalar RSUExampleScenario.node[26].veinsmobility 	totalDistance 	3409.5138499038
scalar RSUExampleScenario.node[26].veinsmobility 	totalCO2Emission 	688.63872887817
scalar RSUExampleScenario.node[27].veinsmobility 	startTime 	81.1
scalar RSUExampleScenario.node[27].veinsmobility 	totalTime 	267.1
scalar RSUExampleScenario.node[27].veinsmobility 	stopTime 	348.3
scalar RSUExampleScenario.node[27].veinsmobility 	minSpeed 	0.25419149100757
scalar RSUExampleScenario.node[27].veinsmobility 	maxSpeed 	13.999922987868
scalar RSUExampleScenario.node[27].veinsmobility 	totalDistance 	3413.544818815
scalar RSUExampleScenario.node[27].veinsmobility 	totalCO2Emission 	689.40158111654
scalar RSUExampleScenario.node[28].veinsmobility 	startTime 	84.1
scalar RSUExampleScenario.node[28].veinsmobility 	totalTime 	267.2
scalar RSUExampleScenario.node[28].veinsmobility 	stopTime 	351.4
scalar RSUExampleScenario.node[28].veinsmobility 	minSpeed 	0.24787982460996
scalar RSUExampleScenario.node[28].veinsmobility 	maxSpeed 	13.999981654121
scalar RSUExampleScenario.node[28].veinsmobility 	totalDistance 	3409.4742968311
scalar RSUExampleScenario.node[28].veinsmobility 	totalCO2Emission 	691.73712894538
scalar RSUExampleScenario.node[29].veinsmobility 	startTime 	87.1
scalar RSUExampleScenario.node[29].veinsmobility 	totalTime 	267.2
scalar RSUExampleScenario.node[29].veinsmobility 	stopTime 	354.4
scalar RSUExampleScenario.node[29].veinsmobility 	minSpeed 	0.25444407501584
scalar RSUExampleScenario.node[29].veinsmobility 	maxSpeed 	13.999968376011
scalar RSUExampleScenario.node[29].veinsmobility 	totalDistance 	3413.6399111187
scalar RSUExampleScenario.node[29].veinsmobility 	totalCO2Emission 	688.91782490312
scalar RSUExampleScenario.node[30].veinsmobility 	startTime 	90.1
scalar RSUExampleScenario.node[30].veinsmobility 	totalTime 	267.2
scalar RSUExampleScenario.node[30].veinsmobility 	stopTime 	357.4
scalar RSUExampleScenario.node[30].veinsmobility 	minSpeed 	0.25207424014062
scalar RSUExampleScenario.node[30].veinsmobility 	maxSpeed 	13.999975535206
scalar RSUExampleScenario.node[30].veinsmobility 	totalDistance 	3409.9195156589
scalar RSUExampleScenario.node[30].veinsmobility 	totalCO2Emission 	691.90434692334
scalar RSUExampleScenario.node[31].veinsmobility 	startTime 	93.1
scalar RSUExampleScenario.node[31].veinsmobility 	totalTime 	267.3
scalar RSUExampleScenario.node[31].veinsmobility 	stopTime 	360.5
scalar RSUExampleScenario.node[31].veinsmobility 	minSpeed 	0.25254373795888
scalar RSUExampleScenario.node[31].veinsmobility 	maxSpeed 	13.999902093485
scalar RSUExampleScenario.node[31].veinsmobility 	totalDistance 	3414.0821545146
scalar RSUExampleScenario.node[31].veinsmobility 	totalCO2Emission 	691.57882332445
scalar RSUExampleScenario.node[32].veinsmobility 	startTime 	96.1
scalar RSUExampleScenario.node[32].veinsmobility 	totalTime 	267.4
scalar RSUExampleScenario.node[32].veinsmobility 	stopTime 	363.6
scalar RSUExampleScenario.node[32].veinsmobility 	minSpeed 	0.25133408149332
scalar RSUExampleScenario.node[32].veinsmobility 	maxSpeed 	13.999999551822
scalar RSUExampleScenario.node[32].veinsmobility 	totalDistance 	3410.2512748532
scalar RSUExampleScenario.node[32].veinsmobility 	totalCO2Emission 	691.65778606979
scalar RSUExampleScenario.node[33].veinsmobility 	startTime 	99.1
scalar RSUExampleScenario.node[33].veinsmobility 	totalTime 	267.4
scalar RSUExampleScenario.node[33].veinsmobility 	stopTime 	366.6
scalar RSUExampleScenario.node[33].veinsmobility 	minSpeed 	0.24773765919288
scalar RSUExampleScenario.node[33].veinsmobility 	maxSpeed 	13.999999037932
scalar RSUExampleScenario.node[33].veinsmobility 	totalDistance 	3409.5051153874
scalar RSUExampleScenario.node[33].veinsmobility 	totalCO2Emission 	692.38143730652
scalar RSUExampleScenario.node[34].veinsmobility 	startTime 	102.1
scalar RSUExampleScenario.node[34].veinsmobility 	totalTime 	267.4
scalar RSUExampleScenario.node[34].veinsmobility 	stopTime 	369.6
scalar RSUExampleScenario.node[34].veinsmobility 	minSpeed 	0.24862913009361
scalar RSUExampleScenario.node[34].veinsmobility 	maxSpeed 	13.999977332186
scalar RSUExampleScenario.node[34].veinsmobility 	totalDistance 	3413.4747665845
scalar RSUExampleScenario.node[34].veinsmobility 	totalCO2Emission 	691.94531312492
scalar RSUExampleScenario.node[35].veinsmobility 	startTime 	105.1
scalar RSUExampleScenario.node[35].veinsmobility 	totalTime 	267.4
scalar RSUExampleScenario.node[35].veinsmobility 	stopTime 	372.6
scalar RSUExampleScenario.node[35].veinsmobility 	minSpeed 	0.25214721321641
scalar RSUExampleScenario.node[35].veinsmobility 	maxSpeed 	13.999911250155
scalar RSUExampleScenario.node[35].veinsmobility 	totalDistance 	3409.8032820257
scalar RSUExampleScenario.node[35].veinsmobility 	totalCO2Emission 	694.09038609672
scalar RSUExampleScenario.node[36].veinsmobility 	startTime 	108.1
scalar RSUExampleScenario.node[36].veinsmobility 	totalTime 	267.4
scalar RSUExampleScenario.node[36].veinsmobility 	stopTime 	375.6
scalar RSUExampleScenario.node[36].veinsmobility 	minSpeed 	0.25247635173541
scalar RSUExampleScenario.node[36].veinsmobility 	maxSpeed 	13.999964109617
scalar RSUExampleScenario.node[36].veinsmobility 	totalDistance 	3413.384261529
scalar RSUExampleScenario.node[36].veinsmobility 	totalCO2Emission 	690.78435310511
scalar RSUExampleScenario.node[37].veinsmobility 	startTime 	111.1
scalar RSUExampleScenario.node[37].veinsmobility 	totalTime 	267.5
scalar RSUExampleScenario.node[37].veinsmobility 	stopTime 	378.7
scalar RSUExampleScenario.node[37].veinsmobility 	minSpeed 	0.2572889210952
scalar RSUExampleScenario.node[37].veinsmobility 	maxSpeed 	13.999958466969
scalar RSUExampleScenario.node[37].veinsmobility 	totalDistance 	3409.9030112097
scalar RSUExampleScenario.node[37].veinsmobility 	totalCO2Emission 	688.65234567505
scalar RSUExampleScenario.node[38].veinsmobility 	startTime 	114.1
scalar RSUExampleScenario.node[38].veinsmobility 	totalTime 	267.6
scalar RSUExampleScenario.node[38].veinsmobility 	stopTime 	381.8
scalar RSUExampleScenario.node[38].veinsmobility 	minSpeed 	0.25723652946134
scalar RSUExampleScenario.node[38].veinsmobility 	maxSpeed 	13.999943047762
scalar RSUExampleScenario.node[38].veinsmobility 	totalDistance 	3414.1175688809
scalar RSUExampleScenario.node[38].veinsmobility 	totalCO2Emission 	689.70997737609
scalar RSUExampleScenario.node[39].veinsmobility 	startTime 	117.1
scalar RSUExampleScenario.node[39].veinsmobility 	totalTime 	267.7
scalar RSUExampleScenario.node[39].veinsmobility 	stopTime 	384.9
scalar RSUExampleScenario.node[39].veinsmobility 	minSpeed 	0.25231996103493
scalar RSUExampleScenario.node[39].veinsmobility 	maxSpeed 	13.999902534762
scalar RSUExampleScenario.node[39].veinsmobility 	totalDistance 	3409.3183415895
scalar RSUExampleScenario.node[39].veinsmobility 	totalCO2Emission 	692.82404374533
scalar RSUExampleScenario.node[40].veinsmobility 	startTime 	120.1
scalar RSUExampleScenario.node[40].veinsmobility 	totalTime 	267.8
scalar RSUExampleScenario.node[40].veinsmobility 	stopTime 	388
scalar RSUExampleScenario.node[40].veinsmobility 	minSpeed 	0.25803672664589
scalar RSUExampleScenario.node[40].veinsmobility 	maxSpeed 	13.999995744594
scalar RSUExampleScenario.node[40].veinsmobility 	totalDistance 	3413.393543238
scalar RSUExampleScenario.node[40].veinsmobility 	totalCO2Emission 	693.29701410747
scalar RSUExampleScenario.node[41].veinsmobility 	startTime 	123.1
scalar RSUExampleScenario.node[41].veinsmobility 	totalTime 	268
scalar RSUExampleScenario.node[41].veinsmobility 	stopTime 	391.2
scalar RSUExampleScenario.node[41].veinsmobility 	minSpeed 	0.24870708204992
scalar RSUExampleScenario.node[41].veinsmobility 	maxSpeed 	13.999892809447
scalar RSUExampleScenario.node[41].veinsmobility 	totalDistance 	3409.8307596583
scalar RSUExampleScenario.node[41].veinsmobility 	totalCO2Emission 	690.59026507099
scalar RSUExampleScenario.node[42].veinsmobility 	startTime 	126.1
scalar RSUExampleScenario.node[42].veinsmobility 	totalTime 	268.2
scalar RSUExampleScenario.node[42].veinsmobility 	stopTime 	394.4
scalar RSUExampleScenario.node[42].veinsmobility 	minSpeed 	0.25490827087616
scalar RSUExampleScenario.node[42].veinsmobility 	maxSpeed 	13.999767137656
scalar RSUExampleScenario.node[42].veinsmobility 	totalDistance 	3413.4310079611
scalar RSUExampleScenario.node[42].veinsmobility 	totalCO2Emission 	691.26285574427
scalar RSUExampleScenario.node[43].veinsmobility 	startTime 	129.1
scalar RSUExampleScenario.node[43].veinsmobility 	totalTime 	268.5
scalar RSUExampleScenario.node[43].veinsmobility 	stopTime 	397.7
scalar RSUExampleScenario.node[43].veinsmobility 	minSpeed 	0.24877602220443
scalar RSUExampleScenario.node[43].veinsmobility 	maxSpeed 	13.999950543598
scalar RSUExampleScenario.node[43].veinsmobility 	totalDistance 	3409.3002144555
scalar RSUExampleScenario.node[43].veinsmobility 	totalCO2Emission 	692.60820937441
scalar RSUExampleScenario.node[44].veinsmobility 	startTime 	132.1
scalar RSUExampleScenario.node[44].veinsmobility 	totalTime 	268.8
scalar RSUExampleScenario.node[44].veinsmobility 	stopTime 	401
scalar RSUExampleScenario.node[44].veinsmobility 	minSpeed 	0.2479932063641
scalar RSUExampleScenario.node[44].veinsmobility 	maxSpeed 	13.999839936728
scalar RSUExampleScenario.node[44].veinsmobility 	totalDistance 	3413.941278028
scalar RSUExampleScenario.node[44].veinsmobility 	totalCO2Emission 	692.28240417783
scalar RSUExampleScenario.node[45].veinsmobility 	startTime 	135.1
scalar RSUExampleScenario.node[45].veinsmobility 	totalTime 	269.1
scalar RSUExampleScenario.node[45].veinsmobility 	stopTime 	404.3
scalar RSUExampleScenario.node[45].veinsmobility 	minSpeed 	0.25718270763801
scalar RSUExampleScenario.node[45].veinsmobility 	maxSpeed 	13.99999781565
scalar RSUExampleScenario.node[45].veinsmobility 	totalDistance 	3409.3819350673
scalar RSUExampleScenario.node[45].veinsmobility 	totalCO2Emission 	688.66792502997
scalar RSUExampleScenario.node[46].veinsmobility 	startTime 	138.1
scalar RSUExampleScenario.node[46].veinsmobility 	totalTime 	269.5
scalar RSUExampleScenario.node[46].veinsmobility 	stopTime 	407.7
scalar RSUExampleScenario.node[46].veinsmobility 	minSpeed 	0.25252013517893
scalar RSUExampleScenario.node[46].veinsmobility 	maxSpeed 	13.999963347591
scalar RSUExampleScenario.node[46].veinsmobility 	totalDistance 	3409.5263557139
scalar RSUExampleScenario.node[46].veinsmobility 	totalCO2Emission 	689.94612253255
scalar RSUExampleScenario.node[47].veinsmobility 	startTime 	141.1
scalar RSUExampleScenario.node[47].veinsmobility 	totalTime 	269.9
scalar RSUExampleScenario.node[47].veinsmobility 	stopTime 	411.1
scalar RSUExampleScenario.node[47].veinsmobility 	minSpeed 	0.25866108681308
scalar RSUExampleScenario.node[47].veinsmobility 	maxSpeed 	13.999957425417
scalar RSUExampleScenario.node[47].veinsmobility 	totalDistance 	3413.5444659695
scalar RSUExampleScenario.node[47].veinsmobility 	totalCO2Emission 	692.66768569619
scalar RSUExampleScenario.node[48].veinsmobility 	startTime 	144.1
scalar RSUExampleScenario.node[48].veinsmobility 	totalTime 	270.4
scalar RSUExampleScenario.node[48].veinsmobility 	stopTime 	414.6
scalar RSUExampleScenario.node[48].veinsmobility 	minSpeed 	0.25112884692079
scalar RSUExampleScenario.node[48].veinsmobility 	maxSpeed 	13.999950199148
scalar RSUExampleScenario.node[48].veinsmobility 	totalDistance 	3410.0267980815
scalar RSUExampleScenario.node[48].veinsmobility 	totalCO2Emission 	695.39044691647
scalar RSUExampleScenario.node[49].veinsmobility 	startTime 	147.1
scalar RSUExampleScenario.node[49].veinsmobility 	totalTime 	271
scalar RSUExampleScenario.node[49].veinsmobility 	stopTime 	418.2
scalar RSUExampleScenario.node[49].veinsmobility 	minSpeed 	0.25643579753535
scalar RSUExampleScenario.node[49].veinsmobility 	maxSpeed 	13.999963804637
scalar RSUExampleScenario.node[49].veinsmobility 	totalDistance 	3414.1158467971
scalar RSUExampleScenario.node[49].veinsmobility 	totalCO2Emission 	697.4476860615
scalar RSUExampleScenario.node[50].veinsmobility 	startTime 	150.1
scalar RSUExampleScenario.node[50].veinsmobility 	totalTime 	271.7
scalar RSUExampleScenario.node[50].veinsmobility 	stopTime 	421.9
scalar RSUExampleScenario.node[50].veinsmobility 	minSpeed 	0.25358368167351
scalar RSUExampleScenario.node[50].veinsmobility 	maxSpeed 	13.999953316781
scalar RSUExampleScenario.node[50].veinsmobility 	totalDistance 	3409.8961571763
scalar RSUExampleScenario.node[50].veinsmobility 	totalCO2Emission 	685.94346804897
scalar RSUExampleScenario.node[51].veinsmobility 	startTime 	153.1
scalar RSUExampleScenario.node[51].veinsmobility 	totalTime 	272.4
scalar RSUExampleScenario.node[51].veinsmobility 	stopTime 	425.6
scalar RSUExampleScenario.node[51].veinsmobility 	minSpeed 	0.25018923481926
scalar RSUExampleScenario.node[51].veinsmobility 	maxSpeed 	13.999982488912
scalar RSUExampleScenario.node[51].veinsmobility 	totalDistance 	3414.1999639454
scalar RSUExampleScenario.node[51].veinsmobility 	totalCO2Emission 	689.46062755723
scalar RSUExampleScenario.node[52].veinsmobility 	startTime 	156.1
scalar RSUExampleScenario.node[52].veinsmobility 	totalTime 	273.1
scalar RSUExampleScenario.node[52].veinsmobility 	stopTime 	429.3
scalar RSUExampleScenario.node[52].veinsmobility 	minSpeed 	0.25885867565661
scalar RSUExampleScenario.node[52].veinsmobility 	maxSpeed 	13.999923066443
scalar RSUExampleScenario.node[52].veinsmobility 	totalDistance 	3409.7858034422
scalar RSUExampleScenario.node[52].veinsmobility 	totalCO2Emission 	692.44640550642
scalar RSUExampleScenario.node[53].veinsmobility 	startTime 	159.1
scalar RSUExampleScenario.node[53].veinsmobility 	totalTime 	273.8
scalar RSUExampleScenario.node[53].veinsmobility 	stopTime 	433
scalar RSUExampleScenario.node[53].veinsmobility 	minSpeed 	0.24947652096394
scalar RSUExampleScenario.node[53].veinsmobility 	maxSpeed 	13.999970493438
scalar RSUExampleScenario.node[53].veinsmobility 	totalDistance 	3413.8864496139
scalar RSUExampleScenario.node[53].veinsmobility 	totalCO2Emission 	698.86898276145
scalar RSUExampleScenario.node[54].veinsmobility 	startTime 	162.1
scalar RSUExampleScenario.node[54].veinsmobility 	totalTime 	274.5
scalar RSUExampleScenario.node[54].veinsmobility 	stopTime 	436.7
scalar RSUExampleScenario.node[54].veinsmobility 	minSpeed 	0.25799256585748
scalar RSUExampleScenario.node[54].veinsmobility 	maxSpeed 	13.999986367906
scalar RSUExampleScenario.node[54].veinsmobility 	totalDistance 	3409.727491228
scalar RSUExampleScenario.node[54].veinsmobility 	totalCO2Emission 	693.51992330513
scalar RSUExampleScenario.node[55].veinsmobility 	startTime 	165.1
scalar RSUExampleScenario.node[55].veinsmobility 	totalTime 	275.2
scalar RSUExampleScenario.node[55].veinsmobility 	stopTime 	440.4
scalar RSUExampleScenario.node[55].veinsmobility 	minSpeed 	0.25123564474983
scalar RSUExampleScenario.node[55].veinsmobility 	maxSpeed 	13.999860662094
scalar RSUExampleScenario.node[55].veinsmobility 	totalDistance 	3413.7160248078
scalar RSUExampleScenario.node[55].veinsmobility 	totalCO2Emission 	696.54261740489
scalar RSUExampleScenario.node[56].veinsmobility 	startTime 	168.1
scalar RSUExampleScenario.node[56].veinsmobility 	totalTime 	276
scalar RSUExampleScenario.node[56].veinsmobility 	stopTime 	444.2
scalar RSUExampleScenario.node[56].veinsmobility 	minSpeed 	0.25932318507205
scalar RSUExampleScenario.node[56].veinsmobility 	maxSpeed 	13.999952572128
scalar RSUExampleScenario.node[56].veinsmobility 	totalDistance 	3410.0553917898
scalar RSUExampleScenario.node[56].veinsmobility 	totalCO2Emission 	698.57791057449
scalar RSUExampleScenario.node[57].veinsmobility 	startTime 	171.1
scalar RSUExampleScenario.node[57].veinsmobility 	totalTime 	276.7
scalar RSUExampleScenario.node[57].veinsmobility 	stopTime 	447.9
scalar RSUExampleScenario.node[57].veinsmobility 	minSpeed 	0.25658907013712
scalar RSUExampleScenario.node[57].veinsmobility 	maxSpeed 	13.999793618994
scalar RSUExampleScenario.node[57].veinsmobility 	totalDistance 	3413.9568839285
scalar RSUExampleScenario.node[57].veinsmobility 	totalCO2Emission 	694.27752767235
scalar RSUExampleScenario.node[58].veinsmobility 	startTime 	174.1
scalar RSUExampleScenario.node[58].veinsmobility 	totalTime 	277.4
scalar RSUExampleScenario.node[58].veinsmobility 	stopTime 	451.6
scalar RSUExampleScenario.node[58].veinsmobility 	minSpeed 	0.25228912369232
scalar RSUExampleScenario.node[58].veinsmobility 	maxSpeed 	13.999969803146
scalar RSUExampleScenario.node[58].veinsmobility 	totalDistance 	3409.8930151206
scalar RSUExampleScenario.node[58].veinsmobility 	totalCO2Emission 	702.50772891847
scalar RSUExampleScenario.node[59].veinsmobility 	startTime 	177.1
scalar RSUExampleScenario.node[59].veinsmobility 	totalTime 	278
scalar RSUExampleScenario.node[59].veinsmobility 	stopTime 	455.2
scalar RSUExampleScenario.node[59].veinsmobility 	minSpeed 	0.25918931536772
scalar RSUExampleScenario.node[59].veinsmobility 	maxSpeed 	13.999993395254
scalar RSUExampleScenario.node[59].veinsmobility 	totalDistance 	3413.6812743832
scalar RSUExampleScenario.node[59].veinsmobility 	totalCO2Emission 	699.94610506904
scalar RSUExampleScenario.node[60].veinsmobility 	startTime 	180.1
scalar RSUExampleScenario.node[60].veinsmobility 	totalTime 	278.7
scalar RSUExampleScenario.node[60].veinsmobility 	stopTime 	458.9
scalar RSUExampleScenario.node[60].veinsmobility 	minSpeed 	0.2501157855948
scalar RSUExampleScenario.node[60].veinsmobility 	maxSpeed 	13.999996148944
scalar RSUExampleScenario.node[60].veinsmobility 	totalDistance 	3409.5144001014
scalar RSUExampleScenario.node[60].veinsmobility 	totalCO2Emission 	699.82400532049
scalar RSUExampleScenario.node[61].veinsmobility 	startTime 	183.1
scalar RSUExampleScenario.node[61].veinsmobility 	totalTime 	279.4
scalar RSUExampleScenario.node[61].veinsmobility 	stopTime 	462.6
scalar RSUExampleScenario.node[61].veinsmobility 	minSpeed 	0.25675982414605
scalar RSUExampleScenario.node[61].veinsmobility 	maxSpeed 	13.999740581345
scalar RSUExampleScenario.node[61].veinsmobility 	totalDistance 	3414.0040821168
scalar RSUExampleScenario.node[61].veinsmobility 	totalCO2Emission 	700.53280556245
scalar RSUExampleScenario.node[62].veinsmobility 	startTime 	186.1
scalar RSUExampleScenario.node[62].veinsmobility 	totalTime 	280.2
scalar RSUExampleScenario.node[62].veinsmobility 	stopTime 	466.4
scalar RSUExampleScenario.node[62].veinsmobility 	minSpeed 	0.25363287797687
scalar RSUExampleScenario.node[62].veinsmobility 	maxSpeed 	13.999981645253
scalar RSUExampleScenario.node[62].veinsmobility 	totalDistance 	3409.7185220685
scalar RSUExampleScenario.node[62].veinsmobility 	totalCO2Emission 	702.69000110558
scalar RSUExampleScenario.node[63].veinsmobility 	startTime 	189.1
scalar RSUExampleScenario.node[63].veinsmobility 	totalTime 	280.8
scalar RSUExampleScenario.node[63].veinsmobility 	stopTime 	470
scalar RSUExampleScenario.node[63].veinsmobility 	minSpeed 	0.25168004079652
scalar RSUExampleScenario.node[63].veinsmobility 	maxSpeed 	13.999984885713
scalar RSUExampleScenario.node[63].veinsmobility 	totalDistance 	3413.6510600311
scalar RSUExampleScenario.node[63].veinsmobility 	totalCO2Emission 	698.89517613471
scalar RSUExampleScenario.node[64].veinsmobility 	startTime 	192.1
scalar RSUExampleScenario.node[64].veinsmobility 	totalTime 	281.5
scalar RSUExampleScenario.node[64].veinsmobility 	stopTime 	473.7
scalar RSUExampleScenario.node[64].veinsmobility 	minSpeed 	0.25887892618775
scalar RSUExampleScenario.node[64].veinsmobility 	maxSpeed 	13.999994372849
scalar RSUExampleScenario.node[64].veinsmobility 	totalDistance 	3410.1671393557
scalar RSUExampleScenario.node[64].veinsmobility 	totalCO2Emission 	703.89022928764
scalar RSUExampleScenario.node[65].veinsmobility 	startTime 	195.1
scalar RSUExampleScenario.node[65].veinsmobility 	totalTime 	282.2
scalar RSUExampleScenario.node[65].veinsmobility 	stopTime 	477.4
scalar RSUExampleScenario.node[65].veinsmobility 	minSpeed 	0.253833939109
scalar RSUExampleScenario.node[65].veinsmobility 	maxSpeed 	13.999901829821
scalar RSUExampleScenario.node[65].veinsmobility 	totalDistance 	3413.8094294546
scalar RSUExampleScenario.node[65].veinsmobility 	totalCO2Emission 	707.13606121667
scalar RSUExampleScenario.node[66].veinsmobility 	startTime 	198.1
scalar RSUExampleScenario.node[66].veinsmobility 	totalTime 	282.8
scalar RSUExampleScenario.node[66].veinsmobility 	stopTime 	481
scalar RSUExampleScenario.node[66].veinsmobility 	minSpeed 	0.25237795890169
scalar RSUExampleScenario.node[66].veinsmobility 	maxSpeed 	13.999937941583
scalar RSUExampleScenario.node[66].veinsmobility 	totalDistance 	3409.5568812553
scalar RSUExampleScenario.node[66].veinsmobility 	totalCO2Emission 	705.1512384986
scalar RSUExampleScenario.node[67].veinsmobility 	startTime 	201.1
scalar RSUExampleScenario.node[67].veinsmobility 	totalTime 	283.5
scalar RSUExampleScenario.node[67].veinsmobility 	stopTime 	484.7
scalar RSUExampleScenario.node[67].veinsmobility 	minSpeed 	0.2516760138229
scalar RSUExampleScenario.node[67].veinsmobility 	maxSpeed 	13.999940625748
scalar RSUExampleScenario.node[67].veinsmobility 	totalDistance 	3409.7258052672
scalar RSUExampleScenario.node[67].veinsmobility 	totalCO2Emission 	703.22808768937
scalar RSUExampleScenario.node[68].veinsmobility 	startTime 	204.1
scalar RSUExampleScenario.node[68].veinsmobility 	totalTime 	284.3
scalar RSUExampleScenario.node[68].veinsmobility 	stopTime 	488.5
scalar RSUExampleScenario.node[68].veinsmobility 	minSpeed 	0.25967068112316
scalar RSUExampleScenario.node[68].veinsmobility 	maxSpeed 	13.999985333376
scalar RSUExampleScenario.node[68].veinsmobility 	totalDistance 	3414.1940301802
scalar RSUExampleScenario.node[68].veinsmobility 	totalCO2Emission 	709.98363268732
scalar RSUExampleScenario.node[69].veinsmobility 	startTime 	207.1
scalar RSUExampleScenario.node[69].veinsmobility 	totalTime 	285
scalar RSUExampleScenario.node[69].veinsmobility 	stopTime 	492.2
scalar RSUExampleScenario.node[69].veinsmobility 	minSpeed 	0.25165710860072
scalar RSUExampleScenario.node[69].veinsmobility 	maxSpeed 	13.999961701345
scalar RSUExampleScenario.node[69].veinsmobility 	totalDistance 	3409.8434312105
scalar RSUExampleScenario.node[69].veinsmobility 	totalCO2Emission 	704.13618010507
scalar RSUExampleScenario.node[70].veinsmobility 	startTime 	210.1
scalar RSUExampleScenario.node[70].veinsmobility 	totalTime 	285.7
scalar RSUExampleScenario.node[70].veinsmobility 	stopTime 	495.9
scalar RSUExampleScenario.node[70].veinsmobility 	minSpeed 	0.2590013576725
scalar RSUExampleScenario.node[70].veinsmobility 	maxSpeed 	13.999945783897
scalar RSUExampleScenario.node[70].veinsmobility 	totalDistance 	3414.2631443502
scalar RSUExampleScenario.node[70].veinsmobility 	totalCO2Emission 	710.09320730559
scalar RSUExampleScenario.node[71].veinsmobility 	startTime 	213.1
scalar RSUExampleScenario.node[71].veinsmobility 	totalTime 	286.4
scalar RSUExampleScenario.node[71].veinsmobility 	stopTime 	499.6
scalar RSUExampleScenario.node[71].veinsmobility 	minSpeed 	0.25108089992241
scalar RSUExampleScenario.node[71].veinsmobility 	maxSpeed 	13.999822496194
scalar RSUExampleScenario.node[71].veinsmobility 	totalDistance 	3409.8295449926
scalar RSUExampleScenario.node[71].veinsmobility 	totalCO2Emission 	709.84904449228
scalar RSUExampleScenario.node[72].veinsmobility 	startTime 	216.1
scalar RSUExampleScenario.node[72].veinsmobility 	totalTime 	287.1
scalar RSUExampleScenario.node[72].veinsmobility 	stopTime 	503.3
scalar RSUExampleScenario.node[72].veinsmobility 	minSpeed 	0.25409332932741
scalar RSUExampleScenario.node[72].veinsmobility 	maxSpeed 	13.99995441566
scalar RSUExampleScenario.node[72].veinsmobility 	totalDistance 	3413.7148438181
scalar RSUExampleScenario.node[72].veinsmobility 	totalCO2Emission 	707.96693784603
scalar RSUExampleScenario.node[73].veinsmobility 	startTime 	219.1
scalar RSUExampleScenario.node[73].veinsmobility 	totalTime 	287.7
scalar RSUExampleScenario.node[73].veinsmobility 	stopTime 	506.9
scalar RSUExampleScenario.node[73].veinsmobility 	minSpeed 	0.25011224196153
scalar RSUExampleScenario.node[73].veinsmobility 	maxSpeed 	13.999925234539
scalar RSUExampleScenario.node[73].veinsmobility 	totalDistance 	3409.7473199636
scalar RSUExampleScenario.node[73].veinsmobility 	totalCO2Emission 	707.48453075948
scalar RSUExampleScenario.node[74].veinsmobility 	startTime 	222.1
scalar RSUExampleScenario.node[74].veinsmobility 	totalTime 	288.3
scalar RSUExampleScenario.node[74].veinsmobility 	stopTime 	510.5
scalar RSUExampleScenario.node[74].veinsmobility 	minSpeed 	0.2565188166548
scalar RSUExampleScenario.node[74].veinsmobility 	maxSpeed 	13.999926390322
scalar RSUExampleScenario.node[74].veinsmobility 	totalDistance 	3413.6453491408
scalar RSUExampleScenario.node[74].veinsmobility 	totalCO2Emission 	710.39634233663
scalar RSUExampleScenario.node[75].veinsmobility 	startTime 	225.1
scalar RSUExampleScenario.node[75].veinsmobility 	totalTime 	289
scalar RSUExampleScenario.node[75].veinsmobility 	stopTime 	514.2
scalar RSUExampleScenario.node[75].veinsmobility 	minSpeed 	0.25062172278739
scalar RSUExampleScenario.node[75].veinsmobility 	maxSpeed 	13.999985975875
scalar RSUExampleScenario.node[75].veinsmobility 	totalDistance 	3410.1533648908
scalar RSUExampleScenario.node[75].veinsmobility 	totalCO2Emission 	709.75988112024
scalar RSUExampleScenario.node[76].veinsmobility 	startTime 	228.1
scalar RSUExampleScenario.node[76].veinsmobility 	totalTime 	289.6
scalar RSUExampleScenario.node[76].veinsmobility 	stopTime 	517.8
scalar RSUExampleScenario.node[76].veinsmobility 	minSpeed 	0.25107066923194
scalar RSUExampleScenario.node[76].veinsmobility 	maxSpeed 	13.9999978777
scalar RSUExampleScenario.node[76].veinsmobility 	totalDistance 	3413.6775117479
scalar RSUExampleScenario.node[76].veinsmobility 	totalCO2Emission 	716.40753868579
scalar RSUExampleScenario.node[77].veinsmobility 	startTime 	231.1
scalar RSUExampleScenario.node[77].veinsmobility 	totalTime 	290.3
scalar RSUExampleScenario.node[77].veinsmobility 	stopTime 	521.5
scalar RSUExampleScenario.node[77].veinsmobility 	minSpeed 	0.25069964989671
scalar RSUExampleScenario.node[77].veinsmobility 	maxSpeed 	13.999894021105
scalar RSUExampleScenario.node[77].veinsmobility 	totalDistance 	3409.8284589066
scalar RSUExampleScenario.node[77].veinsmobility 	totalCO2Emission 	714.65629574983
scalar RSUExampleScenario.node[78].veinsmobility 	startTime 	234.1
scalar RSUExampleScenario.node[78].veinsmobility 	totalTime 	290.9
scalar RSUExampleScenario.node[78].veinsmobility 	stopTime 	525.1
scalar RSUExampleScenario.node[78].veinsmobility 	minSpeed 	0.25611385456659
scalar RSUExampleScenario.node[78].veinsmobility 	maxSpeed 	13.999883911659
scalar RSUExampleScenario.node[78].veinsmobility 	totalDistance 	3413.6906946087
scalar RSUExampleScenario.node[78].veinsmobility 	totalCO2Emission 	710.04809877429
scalar RSUExampleScenario.node[79].veinsmobility 	startTime 	237.1
scalar RSUExampleScenario.node[79].veinsmobility 	totalTime 	291.7
scalar RSUExampleScenario.node[79].veinsmobility 	stopTime 	528.9
scalar RSUExampleScenario.node[79].veinsmobility 	minSpeed 	0.25120843090559
scalar RSUExampleScenario.node[79].veinsmobility 	maxSpeed 	13.999889937893
scalar RSUExampleScenario.node[79].veinsmobility 	totalDistance 	3410.1461961387
scalar RSUExampleScenario.node[79].veinsmobility 	totalCO2Emission 	716.24895863466
scalar RSUExampleScenario.node[80].veinsmobility 	startTime 	240.1
scalar RSUExampleScenario.node[80].veinsmobility 	totalTime 	292.4
scalar RSUExampleScenario.node[80].veinsmobility 	stopTime 	532.6
scalar RSUExampleScenario.node[80].veinsmobility 	minSpeed 	0.25826317643258
scalar RSUExampleScenario.node[80].veinsmobility 	maxSpeed 	13.999891481833
scalar RSUExampleScenario.node[80].veinsmobility 	totalDistance 	3413.6302974644
scalar RSUExampleScenario.node[80].veinsmobility 	totalCO2Emission 	714.40956274962
scalar RSUExampleScenario.node[81].veinsmobility 	startTime 	243.1
scalar RSUExampleScenario.node[81].veinsmobility 	totalTime 	293.1
scalar RSUExampleScenario.node[81].veinsmobility 	stopTime 	536.3
scalar RSUExampleScenario.node[81].veinsmobility 	minSpeed 	0.25473501452827
scalar RSUExampleScenario.node[81].veinsmobility 	maxSpeed 	13.999988670785
scalar RSUExampleScenario.node[81].veinsmobility 	totalDistance 	3409.5882559527
scalar RSUExampleScenario.node[81].veinsmobility 	totalCO2Emission 	715.96247256433
scalar RSUExampleScenario.node[82].veinsmobility 	startTime 	246.1
scalar RSUExampleScenario.node[82].veinsmobility 	totalTime 	293.8
scalar RSUExampleScenario.node[82].veinsmobility 	stopTime 	540
scalar RSUExampleScenario.node[82].veinsmobility 	minSpeed 	0.25229329098226
scalar RSUExampleScenario.node[82].veinsmobility 	maxSpeed 	13.999914339094
scalar RSUExampleScenario.node[82].veinsmobility 	totalDistance 	3413.7997290095
scalar RSUExampleScenario.node[82].veinsmobility 	totalCO2Emission 	715.51587346333
scalar RSUExampleScenario.node[83].veinsmobility 	startTime 	249.1
scalar RSUExampleScenario.node[83].veinsmobility 	totalTime 	294.5
scalar RSUExampleScenario.node[83].veinsmobility 	stopTime 	543.7
scalar RSUExampleScenario.node[83].veinsmobility 	minSpeed 	0.25963366836729
scalar RSUExampleScenario.node[83].veinsmobility 	maxSpeed 	13.999927104041
scalar RSUExampleScenario.node[83].veinsmobility 	totalDistance 	3409.5752444264
scalar RSUExampleScenario.node[83].veinsmobility 	totalCO2Emission 	717.31817240582
scalar RSUExampleScenario.node[84].veinsmobility 	startTime 	252.1
scalar RSUExampleScenario.node[84].veinsmobility 	totalTime 	295.3
scalar RSUExampleScenario.node[84].veinsmobility 	stopTime 	547.5
scalar RSUExampleScenario.node[84].veinsmobility 	minSpeed 	0.25492830181308
scalar RSUExampleScenario.node[84].veinsmobility 	maxSpeed 	13.999930935877
scalar RSUExampleScenario.node[84].veinsmobility 	totalDistance 	3414.1925038572
scalar RSUExampleScenario.node[84].veinsmobility 	totalCO2Emission 	714.25754618407
scalar RSUExampleScenario.node[85].veinsmobility 	startTime 	255.1
scalar RSUExampleScenario.node[85].veinsmobility 	totalTime 	296
scalar RSUExampleScenario.node[85].veinsmobility 	stopTime 	551.2
scalar RSUExampleScenario.node[85].veinsmobility 	minSpeed 	0.25267238363321
scalar RSUExampleScenario.node[85].veinsmobility 	maxSpeed 	13.999812106043
scalar RSUExampleScenario.node[85].veinsmobility 	totalDistance 	3409.5644254944
scalar RSUExampleScenario.node[85].veinsmobility 	totalCO2Emission 	718.16728209739
scalar RSUExampleScenario.node[86].veinsmobility 	startTime 	258.1
scalar RSUExampleScenario.node[86].veinsmobility 	totalTime 	296.7
scalar RSUExampleScenario.node[86].veinsmobility 	stopTime 	554.9
scalar RSUExampleScenario.node[86].veinsmobility 	minSpeed 	0.25251612751931
scalar RSUExampleScenario.node[86].veinsmobility 	maxSpeed 	13.999757512105
scalar RSUExampleScenario.node[86].veinsmobility 	totalDistance 	3414.1540426026
scalar RSUExampleScenario.node[86].veinsmobility 	totalCO2Emission 	720.39136248463
scalar RSUExampleScenario.node[87].veinsmobility 	startTime 	261.1
scalar RSUExampleScenario.node[87].veinsmobility 	totalTime 	297.4
scalar RSUExampleScenario.node[87].veinsmobility 	stopTime 	558.6
scalar RSUExampleScenario.node[87].veinsmobility 	minSpeed 	0.24909513246524
scalar RSUExampleScenario.node[87].veinsmobility 	maxSpeed 	13.999966182702
scalar RSUExampleScenario.node[87].veinsmobility 	totalDistance 	3409.7399689571
scalar RSUExampleScenario.node[87].veinsmobility 	totalCO2Emission 	718.92463170366
scalar RSUExampleScenario.node[88].veinsmobility 	startTime 	264.1
scalar RSUExampleScenario.node[88].veinsmobility 	totalTime 	298.1
scalar RSUExampleScenario.node[88].veinsmobility 	stopTime 	562.3
scalar RSUExampleScenario.node[88].veinsmobility 	minSpeed 	0.25254999483237
scalar RSUExampleScenario.node[88].veinsmobility 	maxSpeed 	13.999941678559
scalar RSUExampleScenario.node[88].veinsmobility 	totalDistance 	3414.2636889728
scalar RSUExampleScenario.node[88].veinsmobility 	totalCO2Emission 	720.4095532372
scalar RSUExampleScenario.node[89].veinsmobility 	startTime 	267.1
scalar RSUExampleScenario.node[89].veinsmobility 	totalTime 	299
scalar RSUExampleScenario.node[89].veinsmobility 	stopTime 	566.2
scalar RSUExampleScenario.node[89].veinsmobility 	minSpeed 	0.2569236807928
scalar RSUExampleScenario.node[89].veinsmobility 	maxSpeed 	13.999866480266
scalar RSUExampleScenario.node[89].veinsmobility 	totalDistance 	3410.2038168915
scalar RSUExampleScenario.node[89].veinsmobility 	totalCO2Emission 	720.56245979218
scalar RSUExampleScenario.node[90].veinsmobility 	startTime 	270.1
scalar RSUExampleScenario.node[90].veinsmobility 	totalTime 	299.7
scalar RSUExampleScenario.node[90].veinsmobility 	stopTime 	569.9
scalar RSUExampleScenario.node[90].veinsmobility 	minSpeed 	0.25886303296895
scalar RSUExampleScenario.node[90].veinsmobility 	maxSpeed 	13.999971344694
scalar RSUExampleScenario.node[90].veinsmobility 	totalDistance 	3413.6810332898
scalar RSUExampleScenario.node[90].veinsmobility 	totalCO2Emission 	717.81198247939
scalar RSUExampleScenario.node[91].veinsmobility 	startTime 	273.1
scalar RSUExampleScenario.node[91].veinsmobility 	totalTime 	300.4
scalar RSUExampleScenario.node[91].veinsmobility 	stopTime 	573.6
scalar RSUExampleScenario.node[91].veinsmobility 	minSpeed 	0.25893875596672
scalar RSUExampleScenario.node[91].veinsmobility 	maxSpeed 	13.999988293736
scalar RSUExampleScenario.node[91].veinsmobility 	totalDistance 	3410.153492938
scalar RSUExampleScenario.node[91].veinsmobility 	totalCO2Emission 	722.72567059569
scalar RSUExampleScenario.node[92].veinsmobility 	startTime 	276.1
scalar RSUExampleScenario.node[92].veinsmobility 	totalTime 	301.1
scalar RSUExampleScenario.node[92].veinsmobility 	stopTime 	577.3
scalar RSUExampleScenario.node[92].veinsmobility 	minSpeed 	0.25561334243184
scalar RSUExampleScenario.node[92].veinsmobility 	maxSpeed 	13.99995538923
scalar RSUExampleScenario.node[92].veinsmobility 	totalDistance 	3414.0007342935
scalar RSUExampleScenario.node[92].veinsmobility 	totalCO2Emission 	725.18224200886
scalar RSUExampleScenario.node[93].veinsmobility 	startTime 	279.1
scalar RSUExampleScenario.node[93].veinsmobility 	totalTime 	301.8
scalar RSUExampleScenario.node[93].veinsmobility 	stopTime 	581
scalar RSUExampleScenario.node[93].veinsmobility 	minSpeed 	0.24835993678658
scalar RSUExampleScenario.node[93].veinsmobility 	maxSpeed 	13.999920090071
scalar RSUExampleScenario.node[93].veinsmobility 	totalDistance 	3410.0257303956
scalar RSUExampleScenario.node[93].veinsmobility 	totalCO2Emission 	717.94070613255
scalar RSUExampleScenario.node[94].veinsmobility 	startTime 	282.1
scalar RSUExampleScenario.node[94].veinsmobility 	totalTime 	302.5
scalar RSUExampleScenario.node[94].veinsmobility 	stopTime 	584.7
scalar RSUExampleScenario.node[94].veinsmobility 	minSpeed 	0.25849239876051
scalar RSUExampleScenario.node[94].veinsmobility 	maxSpeed 	13.999733286216
scalar RSUExampleScenario.node[94].veinsmobility 	totalDistance 	3413.9755435996
scalar RSUExampleScenario.node[94].veinsmobility 	totalCO2Emission 	724.1977011211
scalar RSUExampleScenario.node[95].veinsmobility 	startTime 	285.1
scalar RSUExampleScenario.node[95].veinsmobility 	totalTime 	303.2
scalar RSUExampleScenario.node[95].veinsmobility 	stopTime 	588.4
scalar RSUExampleScenario.node[95].veinsmobility 	minSpeed 	0.25452712407033
scalar RSUExampleScenario.node[95].veinsmobility 	maxSpeed 	13.999916287444
scalar RSUExampleScenario.node[95].veinsmobility 	totalDistance 	3409.7686534412
scalar RSUExampleScenario.node[95].veinsmobility 	totalCO2Emission 	726.65873124025
scalar RSUExampleScenario.node[96].veinsmobility 	startTime 	288.1
scalar RSUExampleScenario.node[96].veinsmobility 	totalTime 	303.9
scalar RSUExampleScenario.node[96].veinsmobility 	stopTime 	592.1
scalar RSUExampleScenario.node[96].veinsmobility 	minSpeed 	0.25182590218261
scalar RSUExampleScenario.node[96].veinsmobility 	maxSpeed 	13.999965062665
scalar RSUExampleScenario.node[96].veinsmobility 	totalDistance 	3414.1287621201
scalar RSUExampleScenario.node[96].veinsmobility 	totalCO2Emission 	723.82913546887
scalar RSUExampleScenario.node[97].veinsmobility 	startTime 	291.1
scalar RSUExampleScenario.node[97].veinsmobility 	totalTime 	304.5
scalar RSUExampleScenario.node[97].veinsmobility 	stopTime 	595.7
scalar RSUExampleScenario.node[97].veinsmobility 	minSpeed 	0.24769829042861
scalar RSUExampleScenario.node[97].veinsmobility 	maxSpeed 	13.99986693698
scalar RSUExampleScenario.node[97].veinsmobility 	totalDistance 	3409.5598012359
scalar RSUExampleScenario.node[97].veinsmobility 	totalCO2Emission 	726.56538771762
scalar RSUExampleScenario.node[98].veinsmobility 	startTime 	294.1
scalar RSUExampleScenario.node[98].veinsmobility 	totalTime 	305.2
scalar RSUExampleScenario.node[98].veinsmobility 	stopTime 	599.4
scalar RSUExampleScenario.node[98].veinsmobility 	minSpeed 	0.25746000703191
scalar RSUExampleScenario.node[98].veinsmobility 	maxSpeed 	13.999975703708
scalar RSUExampleScenario.node[98].veinsmobility 	totalDistance 	3413.9877436962
scalar RSUExampleScenario.node[98].veinsmobility 	totalCO2Emission 	725.79751998575
scalar RSUExampleScenario.node[99].veinsmobility 	startTime 	297.1
scalar RSUExampleScenario.node[99].veinsmobility 	totalTime 	305.9
scalar RSUExampleScenario.node[99].veinsmobility 	stopTime 	603.1
scalar RSUExampleScenario.node[99].veinsmobility 	minSpeed 	0.25892184310732
scalar RSUExampleScenario.node[99].veinsmobility 	maxSpeed 	13.999947062205
scalar RSUExampleScenario.node[99].veinsmobility 	totalDistance 	3409.6747398381
scalar RSUExampleScenario.node[99].veinsmobility 	totalCO2Emission 	727.89559120967
scalar RSUExampleScenario.node[100].veinsmobility 	startTime 	300.1
scalar RSUExampleScenario.node[100].veinsmobility 	totalTime 	306.5
scalar RSUExampleScenario.node[100].veinsmobility 	stopTime 	606.7
scalar RSUExampleScenario.node[100].veinsmobility 	minSpeed 	0.25670800840296
scalar RSUExampleScenario.node[100].veinsmobility 	maxSpeed 	13.999918081791
scalar RSUExampleScenario.node[100].veinsmobility 	totalDistance 	3413.703459309
scalar RSUExampleScenario.node[100].veinsmobility 	totalCO2Emission 	725.95843980391
scalar RSUExampleScenario.node[101].veinsmobility 	startTime 	303.1
scalar RSUExampleScenario.node[101].veinsmobility 	totalTime 	307.2
scalar RSUExampleScenario.node[101].veinsmobility 	stopTime 	610.4
scalar RSUExampleScenario.node[101].veinsmobility 	minSpeed 	0.25259131800337
scalar RSUExampleScenario.node[101].veinsmobility 	maxSpeed 	13.9999862261
scalar RSUExampleScenario.node[101].veinsmobility 	totalDistance 	3409.8859798923
scalar RSUExampleScenario.node[101].veinsmobility 	totalCO2Emission 	728.28914511234
scalar RSUExampleScenario.node[102].veinsmobility 	startTime 	306.1
scalar RSUExampleScenario.node[102].veinsmobility 	totalTime 	307.9
scalar RSUExampleScenario.node[102].veinsmobility 	stopTime 	614.1
scalar RSUExampleScenario.node[102].veinsmobility 	minSpeed 	0.25569273117604
scalar RSUExampleScenario.node[102].veinsmobility 	maxSpeed 	13.999992908
scalar RSUExampleScenario.node[102].veinsmobility 	totalDistance 	3413.7689804202
scalar RSUExampleScenario.node[102].veinsmobility 	totalCO2Emission 	728.38413674203
scalar RSUExampleScenario.node[103].veinsmobility 	startTime 	309.1
scalar RSUExampleScenario.node[103].veinsmobility 	totalTime 	308.6
scalar RSUExampleScenario.node[103].veinsmobility 	stopTime 	617.8
scalar RSUExampleScenario.node[103].veinsmobility 	minSpeed 	0.25733104699734
scalar RSUExampleScenario.node[103].veinsmobility 	maxSpeed 	13.999935200182
scalar RSUExampleScenario.node[103].veinsmobility 	totalDistance 	3409.8385339077
scalar RSUExampleScenario.node[103].veinsmobility 	totalCO2Emission 	729.52736491234
scalar RSUExampleScenario.node[104].veinsmobility 	startTime 	312.1
scalar RSUExampleScenario.node[104].veinsmobility 	totalTime 	309.3
scalar RSUExampleScenario.node[104].veinsmobility 	stopTime 	621.5
scalar RSUExampleScenario.node[104].veinsmobility 	minSpeed 	0.25600224746065
scalar RSUExampleScenario.node[104].veinsmobility 	maxSpeed 	13.999933497699
scalar RSUExampleScenario.node[104].veinsmobility 	totalDistance 	3413.9599836853
scalar RSUExampleScenario.node[104].veinsmobility 	totalCO2Emission 	731.71621623006
scalar RSUExampleScenario.node[105].veinsmobility 	startTime 	315.1
scalar RSUExampleScenario.node[105].veinsmobility 	totalTime 	310
scalar RSUExampleScenario.node[105].veinsmobility 	stopTime 	625.2
scalar RSUExampleScenario.node[105].veinsmobility 	minSpeed 	0.25721885801665
scalar RSUExampleScenario.node[105].veinsmobility 	maxSpeed 	13.99992667808
scalar RSUExampleScenario.node[105].veinsmobility 	totalDistance 	3410.0689463711
scalar RSUExampleScenario.node[105].veinsmobility 	totalCO2Emission 	732.0209827946
scalar RSUExampleScenario.node[106].veinsmobility 	startTime 	318.1
scalar RSUExampleScenario.node[106].veinsmobility 	totalTime 	310.7
scalar RSUExampleScenario.node[106].veinsmobility 	stopTime 	628.9
scalar RSUExampleScenario.node[106].veinsmobility 	minSpeed 	0.25237588347751
scalar RSUExampleScenario.node[106].veinsmobility 	maxSpeed 	13.999813700651
scalar RSUExampleScenario.node[106].veinsmobility 	totalDistance 	3414.0538428993
scalar RSUExampleScenario.node[106].veinsmobility 	totalCO2Emission 	732.97323451904
scalar RSUExampleScenario.node[107].veinsmobility 	startTime 	321.1
scalar RSUExampleScenario.node[107].veinsmobility 	totalTime 	311.5
scalar RSUExampleScenario.node[107].veinsmobility 	stopTime 	632.7
scalar RSUExampleScenario.node[107].veinsmobility 	minSpeed 	0.24825976586319
scalar RSUExampleScenario.node[107].veinsmobility 	maxSpeed 	13.999986954408
scalar RSUExampleScenario.node[107].veinsmobility 	totalDistance 	3409.7437000386
scalar RSUExampleScenario.node[107].veinsmobility 	totalCO2Emission 	731.63797928061
scalar RSUExampleScenario.node[108].veinsmobility 	startTime 	324.1
scalar RSUExampleScenario.node[108].veinsmobility 	totalTime 	312.2
scalar RSUExampleScenario.node[108].veinsmobility 	stopTime 	636.4
scalar RSUExampleScenario.node[108].veinsmobility 	minSpeed 	0.25162309411867
scalar RSUExampleScenario.node[108].veinsmobility 	maxSpeed 	13.9999994579
scalar RSUExampleScenario.node[108].veinsmobility 	totalDistance 	3413.8111615847
scalar RSUExampleScenario.node[108].veinsmobility 	totalCO2Emission 	738.77706429884
scalar RSUExampleScenario.node[109].veinsmobility 	startTime 	327.1
scalar RSUExampleScenario.node[109].veinsmobility 	totalTime 	312.9
scalar RSUExampleScenario.node[109].veinsmobility 	stopTime 	640.1
scalar RSUExampleScenario.node[109].veinsmobility 	minSpeed 	0.25323313480034
scalar RSUExampleScenario.node[109].veinsmobility 	maxSpeed 	13.999971142837
scalar RSUExampleScenario.node[109].veinsmobility 	totalDistance 	3409.9058548996
scalar RSUExampleScenario.node[109].veinsmobility 	totalCO2Emission 	737.05392989233
scalar RSUExampleScenario.node[110].veinsmobility 	startTime 	330.1
scalar RSUExampleScenario.node[110].veinsmobility 	totalTime 	313.7
scalar RSUExampleScenario.node[110].veinsmobility 	stopTime 	643.9
scalar RSUExampleScenario.node[110].veinsmobility 	minSpeed 	0.24730550660007
scalar RSUExampleScenario.node[110].veinsmobility 	maxSpeed 	13.999967216626
scalar RSUExampleScenario.node[110].veinsmobility 	totalDistance 	3413.9400784656
scalar RSUExampleScenario.node[110].veinsmobility 	totalCO2Emission 	731.47074019076
scalar RSUExampleScenario.node[111].veinsmobility 	startTime 	333.1
scalar RSUExampleScenario.node[111].veinsmobility 	totalTime 	314.4
scalar RSUExampleScenario.node[111].veinsmobility 	stopTime 	647.6
scalar RSUExampleScenario.node[111].veinsmobility 	minSpeed 	0.25310317907925
scalar RSUExampleScenario.node[111].veinsmobility 	maxSpeed 	13.999821055408
scalar RSUExampleScenario.node[111].veinsmobility 	totalDistance 	3409.7581830881
scalar RSUExampleScenario.node[111].veinsmobility 	totalCO2Emission 	736.73289758085
scalar RSUExampleScenario.node[112].veinsmobility 	startTime 	336.1
scalar RSUExampleScenario.node[112].veinsmobility 	totalTime 	315.1
scalar RSUExampleScenario.node[112].veinsmobility 	stopTime 	651.3
scalar RSUExampleScenario.node[112].veinsmobility 	minSpeed 	0.25558385386993
scalar RSUExampleScenario.node[112].veinsmobility 	maxSpeed 	13.99999453454
scalar RSUExampleScenario.node[112].veinsmobility 	totalDistance 	3413.9139385776
scalar RSUExampleScenario.node[112].veinsmobility 	totalCO2Emission 	740.17719279864
scalar RSUExampleScenario.node[113].veinsmobility 	startTime 	339.1
scalar RSUExampleScenario.node[113].veinsmobility 	totalTime 	315.7
scalar RSUExampleScenario.node[113].veinsmobility 	stopTime 	654.9
scalar RSUExampleScenario.node[113].veinsmobility 	minSpeed 	0.25245907012722
scalar RSUExampleScenario.node[113].veinsmobility 	maxSpeed 	13.999740188739
scalar RSUExampleScenario.node[113].veinsmobility 	totalDistance 	3409.5487002098
scalar RSUExampleScenario.node[113].veinsmobility 	totalCO2Emission 	738.1859930158
scalar RSUExampleScenario.node[114].veinsmobility 	startTime 	342.1
scalar RSUExampleScenario.node[114].veinsmobility 	totalTime 	316.3
scalar RSUExampleScenario.node[114].veinsmobility 	stopTime 	658.5
scalar RSUExampleScenario.node[114].veinsmobility 	minSpeed 	0.25644065434206
scalar RSUExampleScenario.node[114].veinsmobility 	maxSpeed 	13.999909866273
scalar RSUExampleScenario.node[114].veinsmobility 	totalDistance 	3413.7550990423
scalar RSUExampleScenario.node[114].veinsmobility 	totalCO2Emission 	736.23102176018
scalar RSUExampleScenario.node[115].veinsmobility 	startTime 	345.1
scalar RSUExampleScenario.node[115].veinsmobility 	totalTime 	317
scalar RSUExampleScenario.node[115].veinsmobility 	stopTime 	662.2
scalar RSUExampleScenario.node[115].veinsmobility 	minSpeed 	0.25153095691442
scalar RSUExampleScenario.node[115].veinsmobility 	maxSpeed 	13.999897346981
scalar RSUExampleScenario.node[115].veinsmobility 	totalDistance 	3409.8408932093
scalar RSUExampleScenario.node[115].veinsmobility 	totalCO2Emission 	734.65853655751
scalar RSUExampleScenario.node[116].veinsmobility 	startTime 	348.1
scalar RSUExampleScenario.node[116].veinsmobility 	totalTime 	317.7
scalar RSUExampleScenario.node[116].veinsmobility 	stopTime 	665.9
scalar RSUExampleScenario.node[116].veinsmobility 	minSpeed 	0.24993963713199
scalar RSUExampleScenario.node[116].veinsmobility 	maxSpeed 	13.999941702986
scalar RSUExampleScenario.node[116].veinsmobility 	totalDistance 	3413.9642932274
scalar RSUExampleScenario.node[116].veinsmobility 	totalCO2Emission 	736.05397206847
scalar RSUExampleScenario.node[117].veinsmobility 	startTime 	351.1
scalar RSUExampleScenario.node[117].veinsmobility 	totalTime 	318.4
scalar RSUExampleScenario.node[117].veinsmobility 	stopTime 	669.6
scalar RSUExampleScenario.node[117].veinsmobility 	minSpeed 	0.25569824473141
scalar RSUExampleScenario.node[117].veinsmobility 	maxSpeed 	13.999816630865
scalar RSUExampleScenario.node[117].veinsmobility 	totalDistance 	3409.4560663589
scalar RSUExampleScenario.node[117].veinsmobility 	totalCO2Emission 	740.46025663538
scalar RSUExampleScenario.node[118].veinsmobility 	startTime 	354.1
scalar RSUExampleScenario.node[118].veinsmobility 	totalTime 	319
scalar RSUExampleScenario.node[118].veinsmobility 	stopTime 	673.2
scalar RSUExampleScenario.node[118].veinsmobility 	minSpeed 	0.25759675138956
scalar RSUExampleScenario.node[118].veinsmobility 	maxSpeed 	13.999989960715
scalar RSUExampleScenario.node[118].veinsmobility 	totalDistance 	3413.5138744938
scalar RSUExampleScenario.node[118].veinsmobility 	totalCO2Emission 	743.82235404837
scalar RSUExampleScenario.node[119].veinsmobility 	startTime 	357.1
scalar RSUExampleScenario.node[119].veinsmobility 	totalTime 	319.7
scalar RSUExampleScenario.node[119].veinsmobility 	stopTime 	676.9
scalar RSUExampleScenario.node[119].veinsmobility 	minSpeed 	0.24742097095191
scalar RSUExampleScenario.node[119].veinsmobility 	maxSpeed 	13.999972850224
scalar RSUExampleScenario.node[119].veinsmobility 	totalDistance 	3409.4893299567
scalar RSUExampleScenario.node[119].veinsmobility 	totalCO2Emission 	742.31809596486
scalar RSUExampleScenario.node[120].veinsmobility 	startTime 	360.1
scalar RSUExampleScenario.node[120].veinsmobility 	totalTime 	320.5
scalar RSUExampleScenario.node[120].veinsmobility 	stopTime 	680.7
scalar RSUExampleScenario.node[120].veinsmobility 	minSpeed 	0.25881900982722
scalar RSUExampleScenario.node[120].veinsmobility 	maxSpeed 	13.999990346844
scalar RSUExampleScenario.node[120].veinsmobility 	totalDistance 	3414.2510247666
scalar RSUExampleScenario.node[120].veinsmobility 	totalCO2Emission 	740.03834443617
scalar RSUExampleScenario.node[121].veinsmobility 	startTime 	363.1
scalar RSUExampleScenario.node[121].veinsmobility 	totalTime 	321.2
scalar RSUExampleScenario.node[121].veinsmobility 	stopTime 	684.4
scalar RSUExampleScenario.node[121].veinsmobility 	minSpeed 	0.24957272156025
scalar RSUExampleScenario.node[121].veinsmobility 	maxSpeed 	13.999850840042
scalar RSUExampleScenario.node[121].veinsmobility 	totalDistance 	3410.2251625741
scalar RSUExampleScenario.node[121].veinsmobility 	totalCO2Emission 	746.38048603907
scalar RSUExampleScenario.node[122].veinsmobility 	startTime 	366.1
scalar RSUExampleScenario.node[122].veinsmobility 	totalTime 	321.9
scalar RSUExampleScenario.node[122].veinsmobility 	stopTime 	688.1
scalar RSUExampleScenario.node[122].veinsmobility 	minSpeed 	0.25208621617686
scalar RSUExampleScenario.node[122].veinsmobility 	maxSpeed 	13.999978659013
scalar RSUExampleScenario.node[122].veinsmobility 	totalDistance 	3413.8997652405
scalar RSUExampleScenario.node[122].veinsmobility 	totalCO2Emission 	744.37017475847
scalar RSUExampleScenario.node[123].veinsmobility 	startTime 	369.1
scalar RSUExampleScenario.node[123].veinsmobility 	totalTime 	322.6
scalar RSUExampleScenario.node[123].veinsmobility 	stopTime 	691.8
scalar RSUExampleScenario.node[123].veinsmobility 	minSpeed 	0.24828828991461
scalar RSUExampleScenario.node[123].veinsmobility 	maxSpeed 	13.999975244815
scalar RSUExampleScenario.node[123].veinsmobility 	totalDistance 	3409.8672193022
scalar RSUExampleScenario.node[123].veinsmobility 	totalCO2Emission 	741.8138366611
scalar RSUExampleScenario.node[124].veinsmobility 	startTime 	372.1
scalar RSUExampleScenario.node[124].veinsmobility 	totalTime 	323.2
scalar RSUExampleScenario.node[124].veinsmobility 	stopTime 	695.4
scalar RSUExampleScenario.node[124].veinsmobility 	minSpeed 	0.25019798006304
scalar RSUExampleScenario.node[124].veinsmobility 	maxSpeed 	13.999946695387
scalar RSUExampleScenario.node[124].veinsmobility 	totalDistance 	3413.786577989
scalar RSUExampleScenario.node[124].veinsmobility 	totalCO2Emission 	747.36337254031
scalar RSUExampleScenario.node[125].veinsmobility 	startTime 	375.1
scalar RSUExampleScenario.node[125].veinsmobility 	totalTime 	323.8
scalar RSUExampleScenario.node[125].veinsmobility 	stopTime 	699
scalar RSUExampleScenario.node[125].veinsmobility 	minSpeed 	0.24726371478988
scalar RSUExampleScenario.node[125].veinsmobility 	maxSpeed 	13.999940748697
scalar RSUExampleScenario.node[125].veinsmobility 	totalDistance 	3409.5552316422
scalar RSUExampleScenario.node[125].veinsmobility 	totalCO2Emission 	744.82499556865
scalar RSUExampleScenario.node[126].veinsmobility 	startTime 	378.1
scalar RSUExampleScenario.node[126].veinsmobility 	totalTime 	324.5
scalar RSUExampleScenario.node[126].veinsmobility 	stopTime 	702.7
scalar RSUExampleScenario.node[126].veinsmobility 	minSpeed 	0.24706905217632
scalar RSUExampleScenario.node[126].veinsmobility 	maxSpeed 	13.999941896065
scalar RSUExampleScenario.node[126].veinsmobility 	totalDistance 	3414.1374181744
scalar RSUExampleScenario.node[126].veinsmobility 	totalCO2Emission 	747.48155138657
scalar RSUExampleScenario.node[127].veinsmobility 	startTime 	381.1
scalar RSUExampleScenario.node[127].veinsmobility 	totalTime 	325.2
scalar RSUExampleScenario.node[127].veinsmobility 	stopTime 	706.4
scalar RSUExampleScenario.node[127].veinsmobility 	minSpeed 	0.25574429925135
scalar RSUExampleScenario.node[127].veinsmobility 	maxSpeed 	13.999880966675
scalar RSUExampleScenario.node[127].veinsmobility 	totalDistance 	3409.4436082381
scalar RSUExampleScenario.node[127].veinsmobility 	totalCO2Emission 	742.27105368752
scalar RSUExampleScenario.node[128].veinsmobility 	startTime 	384.1
scalar RSUExampleScenario.node[128].veinsmobility 	totalTime 	325.9
scalar RSUExampleScenario.node[128].veinsmobility 	stopTime 	710.1
scalar RSUExampleScenario.node[128].veinsmobility 	minSpeed 	0.25413227720326
scalar RSUExampleScenario.node[128].veinsmobility 	maxSpeed 	13.999991811754
scalar RSUExampleScenario.node[128].veinsmobility 	totalDistance 	3414.1085156807
scalar RSUExampleScenario.node[128].veinsmobility 	totalCO2Emission 	750.72636370605
scalar RSUExampleScenario.node[129].veinsmobility 	startTime 	387.1
scalar RSUExampleScenario.node[129].veinsmobility 	totalTime 	326.6
scalar RSUExampleScenario.node[129].veinsmobility 	stopTime 	713.8
scalar RSUExampleScenario.node[129].veinsmobility 	minSpeed 	0.25285260225902
scalar RSUExampleScenario.node[129].veinsmobility 	maxSpeed 	13.999966002486
scalar RSUExampleScenario.node[129].veinsmobility 	totalDistance 	3409.5670408609
scalar RSUExampleScenario.node[129].veinsmobility 	totalCO2Emission 	747.00713386868
scalar RSUExampleScenario.node[130].veinsmobility 	startTime 	390.1
scalar RSUExampleScenario.node[130].veinsmobility 	totalTime 	327.4
scalar RSUExampleScenario.node[130].veinsmobility 	stopTime 	717.6
scalar RSUExampleScenario.node[130].veinsmobility 	minSpeed 	0.25070065724547
scalar RSUExampleScenario.node[130].veinsmobility 	maxSpeed 	13.999967560319
scalar RSUExampleScenario.node[130].veinsmobility 	totalDistance 	3414.2847935309
scalar RSUExampleScenario.node[130].veinsmobility 	totalCO2Emission 	746.95869038389
scalar RSUExampleScenario.node[131].veinsmobility 	startTime 	393.1
scalar RSUExampleScenario.node[131].veinsmobility 	totalTime 	328
scalar RSUExampleScenario.node[131].veinsmobility 	stopTime 	721.2
scalar RSUExampleScenario.node[131].veinsmobility 	minSpeed 	0.25793296132982
scalar RSUExampleScenario.node[131].veinsmobility 	maxSpeed 	13.999867395933
scalar RSUExampleScenario.node[131].veinsmobility 	totalDistance 	3409.5384428722
scalar RSUExampleScenario.node[131].veinsmobility 	totalCO2Emission 	750.57244018267
scalar RSUExampleScenario.node[132].veinsmobility 	startTime 	396.1
scalar RSUExampleScenario.node[132].veinsmobility 	totalTime 	328.6
scalar RSUExampleScenario.node[132].veinsmobility 	stopTime 	724.8
scalar RSUExampleScenario.node[132].veinsmobility 	minSpeed 	0.25513508159947
scalar RSUExampleScenario.node[132].veinsmobility 	maxSpeed 	13.999957784608
scalar RSUExampleScenario.node[132].veinsmobility 	totalDistance 	3413.9754169374
scalar RSUExampleScenario.node[132].veinsmobility 	totalCO2Emission 	750.59315287351
scalar RSUExampleScenario.node[133].veinsmobility 	startTime 	399.1
scalar RSUExampleScenario.node[133].veinsmobility 	totalTime 	329.2
scalar RSUExampleScenario.node[133].veinsmobility 	stopTime 	728.4
scalar RSUExampleScenario.node[133].veinsmobility 	minSpeed 	0.25922162304423
scalar RSUExampleScenario.node[133].veinsmobility 	maxSpeed 	13.999980094291
scalar RSUExampleScenario.node[133].veinsmobility 	totalDistance 	3409.7243932393
scalar RSUExampleScenario.node[133].veinsmobility 	totalCO2Emission 	756.29195172224
scalar RSUExampleScenario.node[134].veinsmobility 	startTime 	402.1
scalar RSUExampleScenario.node[134].veinsmobility 	totalTime 	329.9
scalar RSUExampleScenario.node[134].veinsmobility 	stopTime 	732.1
scalar RSUExampleScenario.node[134].veinsmobility 	minSpeed 	0.25208647228335
scalar RSUExampleScenario.node[134].veinsmobility 	maxSpeed 	13.999897513848
scalar RSUExampleScenario.node[134].veinsmobility 	totalDistance 	3409.799513159
scalar RSUExampleScenario.node[134].veinsmobility 	totalCO2Emission 	752.31622819032
scalar RSUExampleScenario.node[135].veinsmobility 	startTime 	405.1
scalar RSUExampleScenario.node[135].veinsmobility 	totalTime 	330.5
scalar RSUExampleScenario.node[135].veinsmobility 	stopTime 	735.7
scalar RSUExampleScenario.node[135].veinsmobility 	minSpeed 	0.25509141361015
scalar RSUExampleScenario.node[135].veinsmobility 	maxSpeed 	13.999969659827
scalar RSUExampleScenario.node[135].veinsmobility 	totalDistance 	3413.667879461
scalar RSUExampleScenario.node[135].veinsmobility 	totalCO2Emission 	752.05503398584
scalar RSUExampleScenario.node[136].veinsmobility 	startTime 	408.1
scalar RSUExampleScenario.node[136].veinsmobility 	totalTime 	331.2
scalar RSUExampleScenario.node[136].veinsmobility 	stopTime 	739.4
scalar RSUExampleScenario.node[136].veinsmobility 	minSpeed 	0.24797509079427
scalar RSUExampleScenario.node[136].veinsmobility 	maxSpeed 	13.999981505747
scalar RSUExampleScenario.node[136].veinsmobility 	totalDistance 	3410.0431405014
scalar RSUExampleScenario.node[136].veinsmobility 	totalCO2Emission 	754.41652826617
scalar RSUExampleScenario.node[137].veinsmobility 	startTime 	411.1
scalar RSUExampleScenario.node[137].veinsmobility 	totalTime 	331.9
scalar RSUExampleScenario.node[137].veinsmobility 	stopTime 	743.1
scalar RSUExampleScenario.node[137].veinsmobility 	minSpeed 	0.25604393941374
scalar RSUExampleScenario.node[137].veinsmobility 	maxSpeed 	13.99993660395
scalar RSUExampleScenario.node[137].veinsmobility 	totalDistance 	3413.7378047309
scalar RSUExampleScenario.node[137].veinsmobility 	totalCO2Emission 	752.09236793925
scalar RSUExampleScenario.node[138].veinsmobility 	startTime 	414.1
scalar RSUExampleScenario.node[138].veinsmobility 	totalTime 	332.6
scalar RSUExampleScenario.node[138].veinsmobility 	stopTime 	746.8
scalar RSUExampleScenario.node[138].veinsmobility 	minSpeed 	0.25433658875665
scalar RSUExampleScenario.node[138].veinsmobility 	maxSpeed 	13.999976992791
scalar RSUExampleScenario.node[138].veinsmobility 	totalDistance 	3409.6946590391
scalar RSUExampleScenario.node[138].veinsmobility 	totalCO2Emission 	751.44750743832
scalar RSUExampleScenario.node[139].veinsmobility 	startTime 	417.1
scalar RSUExampleScenario.node[139].veinsmobility 	totalTime 	333.3
scalar RSUExampleScenario.node[139].veinsmobility 	stopTime 	750.5
scalar RSUExampleScenario.node[139].veinsmobility 	minSpeed 	0.25969529376714
scalar RSUExampleScenario.node[139].veinsmobility 	maxSpeed 	13.999967567553
scalar RSUExampleScenario.node[139].veinsmobility 	totalDistance 	3413.8559628174
scalar RSUExampleScenario.node[139].veinsmobility 	totalCO2Emission 	755.87421831713
scalar RSUExampleScenario.node[140].veinsmobility 	startTime 	420.1
scalar RSUExampleScenario.node[140].veinsmobility 	totalTime 	334
scalar RSUExampleScenario.node[140].veinsmobility 	stopTime 	754.2
scalar RSUExampleScenario.node[140].veinsmobility 	minSpeed 	0.25221395955351
scalar RSUExampleScenario.node[140].veinsmobility 	maxSpeed 	13.999915293262
scalar RSUExampleScenario.node[140].veinsmobility 	totalDistance 	3409.7367897793
scalar RSUExampleScenario.node[140].veinsmobility 	totalCO2Emission 	755.99710957186
scalar RSUExampleScenario.node[141].veinsmobility 	startTime 	423.1
scalar RSUExampleScenario.node[141].veinsmobility 	totalTime 	334.7
scalar RSUExampleScenario.node[141].veinsmobility 	stopTime 	757.9
scalar RSUExampleScenario.node[141].veinsmobility 	minSpeed 	0.25462500428245
scalar RSUExampleScenario.node[141].veinsmobility 	maxSpeed 	13.999995852802
scalar RSUExampleScenario.node[141].veinsmobility 	totalDistance 	3413.9704314593
scalar RSUExampleScenario.node[141].veinsmobility 	totalCO2Emission 	754.97002098505
scalar RSUExampleScenario.node[142].veinsmobility 	startTime 	426.1
scalar RSUExampleScenario.node[142].veinsmobility 	totalTime 	335.5
scalar RSUExampleScenario.node[142].veinsmobility 	stopTime 	761.7
scalar RSUExampleScenario.node[142].veinsmobility 	minSpeed 	0.25988496172754
scalar RSUExampleScenario.node[142].veinsmobility 	maxSpeed 	13.999993755715
scalar RSUExampleScenario.node[142].veinsmobility 	totalDistance 	3410.0074442906
scalar RSUExampleScenario.node[142].veinsmobility 	totalCO2Emission 	761.06761560717
scalar RSUExampleScenario.node[143].veinsmobility 	startTime 	429.1
scalar RSUExampleScenario.node[143].veinsmobility 	totalTime 	336.2
scalar RSUExampleScenario.node[143].veinsmobility 	stopTime 	765.4
scalar RSUExampleScenario.node[143].veinsmobility 	minSpeed 	0.25474104205216
scalar RSUExampleScenario.node[143].veinsmobility 	maxSpeed 	13.999961966008
scalar RSUExampleScenario.node[143].veinsmobility 	totalDistance 	3413.78533722
scalar RSUExampleScenario.node[143].veinsmobility 	totalCO2Emission 	757.10527953533
scalar RSUExampleScenario.node[144].veinsmobility 	startTime 	432.1
scalar RSUExampleScenario.node[144].veinsmobility 	totalTime 	336.9
scalar RSUExampleScenario.node[144].veinsmobility 	stopTime 	769.1
scalar RSUExampleScenario.node[144].veinsmobility 	minSpeed 	0.25415039310302
scalar RSUExampleScenario.node[144].veinsmobility 	maxSpeed 	13.999995715688
scalar RSUExampleScenario.node[144].veinsmobility 	totalDistance 	3410.1259708399
scalar RSUExampleScenario.node[144].veinsmobility 	totalCO2Emission 	758.7515138327
scalar RSUExampleScenario.node[145].veinsmobility 	startTime 	435.1
scalar RSUExampleScenario.node[145].veinsmobility 	totalTime 	337.6
scalar RSUExampleScenario.node[145].veinsmobility 	stopTime 	772.8
scalar RSUExampleScenario.node[145].veinsmobility 	minSpeed 	0.25541125736106
scalar RSUExampleScenario.node[145].veinsmobility 	maxSpeed 	13.999864836806
scalar RSUExampleScenario.node[145].veinsmobility 	totalDistance 	3414.0975830665
scalar RSUExampleScenario.node[145].veinsmobility 	totalCO2Emission 	759.22591031901
scalar RSUExampleScenario.node[146].veinsmobility 	startTime 	438.1
scalar RSUExampleScenario.node[146].veinsmobility 	totalTime 	338.3
scalar RSUExampleScenario.node[146].veinsmobility 	stopTime 	776.5
scalar RSUExampleScenario.node[146].veinsmobility 	minSpeed 	0.25861824509129
scalar RSUExampleScenario.node[146].veinsmobility 	maxSpeed 	13.999945737526
scalar RSUExampleScenario.node[146].veinsmobility 	totalDistance 	3409.6458418729
scalar RSUExampleScenario.node[146].veinsmobility 	totalCO2Emission 	758.53955123865
scalar RSUExampleScenario.node[147].veinsmobility 	startTime 	441.1
scalar RSUExampleScenario.node[147].veinsmobility 	totalTime 	339
scalar RSUExampleScenario.node[147].veinsmobility 	stopTime 	780.2
scalar RSUExampleScenario.node[147].veinsmobility 	minSpeed 	0.24710368781188
scalar RSUExampleScenario.node[147].veinsmobility 	maxSpeed 	13.999959166765
scalar RSUExampleScenario.node[147].veinsmobility 	totalDistance 	3410.0560238199
scalar RSUExampleScenario.node[147].veinsmobility 	totalCO2Emission 	764.56280283437
scalar RSUExampleScenario.node[148].veinsmobility 	startTime 	444.1
scalar RSUExampleScenario.node[148].veinsmobility 	totalTime 	339.7
scalar RSUExampleScenario.node[148].veinsmobility 	stopTime 	783.9
scalar RSUExampleScenario.node[148].veinsmobility 	minSpeed 	0.25058253206545
scalar RSUExampleScenario.node[148].veinsmobility 	maxSpeed 	13.999885883224
scalar RSUExampleScenario.node[148].veinsmobility 	totalDistance 	3414.0724299297
scalar RSUExampleScenario.node[148].veinsmobility 	totalCO2Emission 	762.36396802349
scalar RSUExampleScenario.node[149].veinsmobility 	startTime 	447.1
scalar RSUExampleScenario.node[149].veinsmobility 	totalTime 	340.4
scalar RSUExampleScenario.node[149].veinsmobility 	stopTime 	787.6
scalar RSUExampleScenario.node[149].veinsmobility 	minSpeed 	0.25811266721901
scalar RSUExampleScenario.node[149].veinsmobility 	maxSpeed 	13.999922813403
scalar RSUExampleScenario.node[149].veinsmobility 	totalDistance 	3410.2407318229
scalar RSUExampleScenario.node[149].veinsmobility 	totalCO2Emission 	765.0088761125
scalar RSUExampleScenario.node[150].veinsmobility 	startTime 	450.1
scalar RSUExampleScenario.node[150].veinsmobility 	totalTime 	341.1
scalar RSUExampleScenario.node[150].veinsmobility 	stopTime 	791.3
scalar RSUExampleScenario.node[150].veinsmobility 	minSpeed 	0.25470850479905
scalar RSUExampleScenario.node[150].veinsmobility 	maxSpeed 	13.999890318029
scalar RSUExampleScenario.node[150].veinsmobility 	totalDistance 	3414.3507722336
scalar RSUExampleScenario.node[150].veinsmobility 	totalCO2Emission 	762.26143552833
scalar RSUExampleScenario.node[151].veinsmobility 	startTime 	453.1
scalar RSUExampleScenario.node[151].veinsmobility 	totalTime 	341.7
scalar RSUExampleScenario.node[151].veinsmobility 	stopTime 	794.9
scalar RSUExampleScenario.node[151].veinsmobility 	minSpeed 	0.25841843419033
scalar RSUExampleScenario.node[151].veinsmobility 	maxSpeed 	13.999970575948
scalar RSUExampleScenario.node[151].veinsmobility 	totalDistance 	3409.6962623706
scalar RSUExampleScenario.node[151].veinsmobility 	totalCO2Emission 	765.34756972026
scalar RSUExampleScenario.node[152].veinsmobility 	startTime 	456.1
scalar RSUExampleScenario.node[152].veinsmobility 	totalTime 	342.4
scalar RSUExampleScenario.node[152].veinsmobility 	stopTime 	798.6
scalar RSUExampleScenario.node[152].veinsmobility 	minSpeed 	0.25009447363811
scalar RSUExampleScenario.node[152].veinsmobility 	maxSpeed 	13.99993928297
scalar RSUExampleScenario.node[152].veinsmobility 	totalDistance 	3414.1693879505
[...]
scalar RSUExampleScenario.node[628].veinsmobility 	totalCO2Emission 	323.58816788312
scalar RSUExampleScenario.node[629].veinsmobility 	startTime 	1887.1
scalar RSUExampleScenario.node[629].veinsmobility 	totalTime 	112.8
scalar RSUExampleScenario.node[629].veinsmobility 	stopTime 	2000
scalar RSUExampleScenario.node[629].veinsmobility 	minSpeed 	0.25321294001071
scalar RSUExampleScenario.node[629].veinsmobility 	maxSpeed 	13.999870552763
scalar RSUExampleScenario.node[629].veinsmobility 	totalDistance 	1360.7995000406
scalar RSUExampleScenario.node[629].veinsmobility 	totalCO2Emission 	318.52549939987
scalar RSUExampleScenario.node[630].veinsmobility 	startTime 	1890.1
scalar RSUExampleScenario.node[630].veinsmobility 	totalTime 	109.8
scalar RSUExampleScenario.node[630].veinsmobility 	stopTime 	2000
scalar RSUExampleScenario.node[630].veinsmobility 	minSpeed 	0.25994528682088
scalar RSUExampleScenario.node[630].veinsmobility 	maxSpeed 	13.999939784359
scalar RSUExampleScenario.node[630].veinsmobility 	totalDistance 	1319.3440717253
scalar RSUExampleScenario.node[630].veinsmobility 	totalCO2Emission 	309.21418139789
scalar RSUExampleScenario.node[631].veinsmobility 	startTime 	1893.1
scalar RSUExampleScenario.node[631].veinsmobility 	totalTime 	106.8
scalar RSUExampleScenario.node[631].veinsmobility 	stopTime 	2000
scalar RSUExampleScenario.node[631].veinsmobility 	minSpeed 	0.25978628209862
scalar RSUExampleScenario.node[631].veinsmobility 	maxSpeed 	13.999909736
scalar RSUExampleScenario.node[631].veinsmobility 	totalDistance 	1277.931196288
scalar RSUExampleScenario.node[631].veinsmobility 	totalCO2Emission 	302.14335634307
scalar RSUExampleScenario.node[632].veinsmobility 	startTime 	1896.1
scalar RSUExampleScenario.node[632].veinsmobility 	totalTime 	103.8
scalar RSUExampleScenario.node[632].veinsmobility 	stopTime 	2000
scalar RSUExampleScenario.node[632].veinsmobility 	minSpeed 	0.25387563301739
scalar RSUExampleScenario.node[632].veinsmobility 	maxSpeed 	13.99986359721
scalar RSUExampleScenario.node[632].veinsmobility 	totalDistance 	1237.1178239952
scalar RSUExampleScenario.node[632].veinsmobility 	totalCO2Emission 	294.94027074675
scalar RSUExampleScenario.node[633].veinsmobility 	startTime 	1899.1
scalar RSUExampleScenario.node[633].veinsmobility 	totalTime 	100.8
scalar RSUExampleScenario.node[633].veinsmobility 	stopTime 	2000
scalar RSUExampleScenario.node[633].veinsmobility 	minSpeed 	0.25387188497232
scalar RSUExampleScenario.node[633].veinsmobility 	maxSpeed 	13.999318276837
scalar RSUExampleScenario.node[633].veinsmobility 	totalDistance 	1195.6840107006
scalar RSUExampleScenario.node[633].veinsmobility 	totalCO2Emission 	287.62289709528
scalar RSUExampleScenario.node[634].veinsmobility 	startTime 	1902.1
scalar RSUExampleScenario.node[634].veinsmobility 	totalTime 	97.8
scalar RSUExampleScenario.node[634].veinsmobility 	stopTime 	2000
scalar RSUExampleScenario.node[634].veinsmobility 	minSpeed 	0.25057793824514
scalar RSUExampleScenario.node[634].veinsmobility 	maxSpeed 	13.999882882608
scalar RSUExampleScenario.node[634].veinsmobility 	totalDistance 	1153.9761354399
scalar RSUExampleScenario.node[634].veinsmobility 	totalCO2Emission 	284.13493791753
scalar RSUExampleScenario.node[635].veinsmobility 	startTime 	1905.1
scalar RSUExampleScenario.node[635].veinsmobility 	totalTime 	94.8
scalar RSUExampleScenario.node[635].veinsmobility 	stopTime 	2000
scalar RSUExampleScenario.node[635].veinsmobility 	minSpeed 	0.25997057689866
scalar RSUExampleScenario.node[635].veinsmobility 	maxSpeed 	13.999698035426
scalar RSUExampleScenario.node[635].veinsmobility 	totalDistance 	1112.0295334454
scalar RSUExampleScenario.node[635].veinsmobility 	totalCO2Emission 	275.48990033276
scalar RSUExampleScenario.node[636].veinsmobility 	startTime 	1908.1
scalar RSUExampleScenario.node[636].veinsmobility 	totalTime 	91.8
scalar RSUExampleScenario.node[636].veinsmobility 	stopTime 	2000
scalar RSUExampleScenario.node[636].veinsmobility 	minSpeed 	0.25401946471119
scalar RSUExampleScenario.node[636].veinsmobility 	maxSpeed 	13.999706874706
scalar RSUExampleScenario.node[636].veinsmobility 	totalDistance 	1071.6550153325
scalar RSUExampleScenario.node[636].veinsmobility 	totalCO2Emission 	267.04588006958
scalar RSUExampleScenario.node[637].veinsmobility 	startTime 	1911.1
scalar RSUExampleScenario.node[637].veinsmobility 	totalTime 	88.8
scalar RSUExampleScenario.node[637].veinsmobility 	stopTime 	2000
scalar RSUExampleScenario.node[637].veinsmobility 	minSpeed 	0.24872618088429
scalar RSUExampleScenario.node[637].veinsmobility 	maxSpeed 	13.999829194166
scalar RSUExampleScenario.node[637].veinsmobility 	totalDistance 	1029.8209926367
scalar RSUExampleScenario.node[637].veinsmobility 	totalCO2Emission 	263.06415831741
scalar RSUExampleScenario.node[638].veinsmobility 	startTime 	1914.1
scalar RSUExampleScenario.node[638].veinsmobility 	totalTime 	85.8
scalar RSUExampleScenario.node[638].veinsmobility 	stopTime 	2000
scalar RSUExampleScenario.node[638].veinsmobility 	minSpeed 	0.25558068072889
scalar RSUExampleScenario.node[638].veinsmobility 	maxSpeed 	13.999874141607
scalar RSUExampleScenario.node[638].veinsmobility 	totalDistance 	988.06258031804
scalar RSUExampleScenario.node[638].veinsmobility 	totalCO2Emission 	253.54828694452
scalar RSUExampleScenario.node[639].veinsmobility 	startTime 	1917.1
scalar RSUExampleScenario.node[639].veinsmobility 	totalTime 	82.8
scalar RSUExampleScenario.node[639].veinsmobility 	stopTime 	2000
scalar RSUExampleScenario.node[639].veinsmobility 	minSpeed 	0.25440022129309
scalar RSUExampleScenario.node[639].veinsmobility 	maxSpeed 	13.999485151919
scalar RSUExampleScenario.node[639].veinsmobility 	totalDistance 	955.03570027644
scalar RSUExampleScenario.node[639].veinsmobility 	totalCO2Emission 	234.32779546081
scalar RSUExampleScenario.node[640].veinsmobility 	startTime 	1920.1
scalar RSUExampleScenario.node[640].veinsmobility 	totalTime 	79.8
scalar RSUExampleScenario.node[640].veinsmobility 	stopTime 	2000
scalar RSUExampleScenario.node[640].veinsmobility 	minSpeed 	0.24842658898421
scalar RSUExampleScenario.node[640].veinsmobility 	maxSpeed 	13.999511616973
scalar RSUExampleScenario.node[640].veinsmobility 	totalDistance 	938.00282567957
scalar RSUExampleScenario.node[640].veinsmobility 	totalCO2Emission 	222.11775622693
scalar RSUExampleScenario.node[641].veinsmobility 	startTime 	1923.1
scalar RSUExampleScenario.node[641].veinsmobility 	totalTime 	76.8
scalar RSUExampleScenario.node[641].veinsmobility 	stopTime 	2000
scalar RSUExampleScenario.node[641].veinsmobility 	minSpeed 	0.24931602823432
scalar RSUExampleScenario.node[641].veinsmobility 	maxSpeed 	13.999905743834
scalar RSUExampleScenario.node[641].veinsmobility 	totalDistance 	912.88290626878
scalar RSUExampleScenario.node[641].veinsmobility 	totalCO2Emission 	218.45914183803
scalar RSUExampleScenario.node[642].veinsmobility 	startTime 	1926.1
scalar RSUExampleScenario.node[642].veinsmobility 	totalTime 	73.8
scalar RSUExampleScenario.node[642].veinsmobility 	stopTime 	2000
scalar RSUExampleScenario.node[642].veinsmobility 	minSpeed 	0.25838542548311
scalar RSUExampleScenario.node[642].veinsmobility 	maxSpeed 	13.999484750838
scalar RSUExampleScenario.node[642].veinsmobility 	totalDistance 	873.55415244517
scalar RSUExampleScenario.node[642].veinsmobility 	totalCO2Emission 	213.30371245046
scalar RSUExampleScenario.node[643].veinsmobility 	startTime 	1929.1
scalar RSUExampleScenario.node[643].veinsmobility 	totalTime 	70.8
scalar RSUExampleScenario.node[643].veinsmobility 	stopTime 	2000
scalar RSUExampleScenario.node[643].veinsmobility 	minSpeed 	0.24988544869679
scalar RSUExampleScenario.node[643].veinsmobility 	maxSpeed 	13.999393324093
scalar RSUExampleScenario.node[643].veinsmobility 	totalDistance 	831.49330148525
scalar RSUExampleScenario.node[643].veinsmobility 	totalCO2Emission 	206.3218953444
scalar RSUExampleScenario.node[644].veinsmobility 	startTime 	1932.1
scalar RSUExampleScenario.node[644].veinsmobility 	totalTime 	67.8
scalar RSUExampleScenario.node[644].veinsmobility 	stopTime 	2000
scalar RSUExampleScenario.node[644].veinsmobility 	minSpeed 	0.25995342392637
scalar RSUExampleScenario.node[644].veinsmobility 	maxSpeed 	13.999778545084
scalar RSUExampleScenario.node[644].veinsmobility 	totalDistance 	788.39735658939
scalar RSUExampleScenario.node[644].veinsmobility 	totalCO2Emission 	199.41190241012
scalar RSUExampleScenario.node[645].veinsmobility 	startTime 	1935.1
scalar RSUExampleScenario.node[645].veinsmobility 	totalTime 	64.8
scalar RSUExampleScenario.node[645].veinsmobility 	stopTime 	2000
scalar RSUExampleScenario.node[645].veinsmobility 	minSpeed 	0.24909479735931
scalar RSUExampleScenario.node[645].veinsmobility 	maxSpeed 	13.999789896063
scalar RSUExampleScenario.node[645].veinsmobility 	totalDistance 	747.2987941946
scalar RSUExampleScenario.node[645].veinsmobility 	totalCO2Emission 	194.09814076538
scalar RSUExampleScenario.node[646].veinsmobility 	startTime 	1938.1
scalar RSUExampleScenario.node[646].veinsmobility 	totalTime 	61.8
scalar RSUExampleScenario.node[646].veinsmobility 	stopTime 	2000
scalar RSUExampleScenario.node[646].veinsmobility 	minSpeed 	0.24841391399968
scalar RSUExampleScenario.node[646].veinsmobility 	maxSpeed 	13.9997577646
scalar RSUExampleScenario.node[646].veinsmobility 	totalDistance 	705.24154736085
scalar RSUExampleScenario.node[646].veinsmobility 	totalCO2Emission 	185.48335199492
scalar RSUExampleScenario.node[647].veinsmobility 	startTime 	1941.1
scalar RSUExampleScenario.node[647].veinsmobility 	totalTime 	58.8
scalar RSUExampleScenario.node[647].veinsmobility 	stopTime 	2000
scalar RSUExampleScenario.node[647].veinsmobility 	minSpeed 	0.25071934757405
scalar RSUExampleScenario.node[647].veinsmobility 	maxSpeed 	13.999543695617
scalar RSUExampleScenario.node[647].veinsmobility 	totalDistance 	663.41407764004
scalar RSUExampleScenario.node[647].veinsmobility 	totalCO2Emission 	178.77206659993
scalar RSUExampleScenario.node[648].veinsmobility 	startTime 	1944.1
scalar RSUExampleScenario.node[648].veinsmobility 	totalTime 	55.8
scalar RSUExampleScenario.node[648].veinsmobility 	stopTime 	2000
scalar RSUExampleScenario.node[648].veinsmobility 	minSpeed 	0.25766447003419
scalar RSUExampleScenario.node[648].veinsmobility 	maxSpeed 	13.999962256884
scalar RSUExampleScenario.node[648].veinsmobility 	totalDistance 	622.87305188934
scalar RSUExampleScenario.node[648].veinsmobility 	totalCO2Emission 	170.50853245838
scalar RSUExampleScenario.node[649].veinsmobility 	startTime 	1947.1
scalar RSUExampleScenario.node[649].veinsmobility 	totalTime 	52.8
scalar RSUExampleScenario.node[649].veinsmobility 	stopTime 	2000
scalar RSUExampleScenario.node[649].veinsmobility 	minSpeed 	0.25798340886319
scalar RSUExampleScenario.node[649].veinsmobility 	maxSpeed 	13.999638379803
scalar RSUExampleScenario.node[649].veinsmobility 	totalDistance 	581.38415046339
scalar RSUExampleScenario.node[649].veinsmobility 	totalCO2Emission 	164.90393092086
scalar RSUExampleScenario.node[650].veinsmobility 	startTime 	1950.1
scalar RSUExampleScenario.node[650].veinsmobility 	totalTime 	49.8
scalar RSUExampleScenario.node[650].veinsmobility 	stopTime 	2000
scalar RSUExampleScenario.node[650].veinsmobility 	minSpeed 	0.25777882092679
scalar RSUExampleScenario.node[650].veinsmobility 	maxSpeed 	13.999255664335
scalar RSUExampleScenario.node[650].veinsmobility 	totalDistance 	538.68779550828
scalar RSUExampleScenario.node[650].veinsmobility 	totalCO2Emission 	157.38238787894
scalar RSUExampleScenario.node[651].veinsmobility 	startTime 	1953.1
scalar RSUExampleScenario.node[651].veinsmobility 	totalTime 	46.8
scalar RSUExampleScenario.node[651].veinsmobility 	stopTime 	2000
scalar RSUExampleScenario.node[651].veinsmobility 	minSpeed 	0.24893399414676
scalar RSUExampleScenario.node[651].veinsmobility 	maxSpeed 	13.999899218359
scalar RSUExampleScenario.node[651].veinsmobility 	totalDistance 	498.30711309842
scalar RSUExampleScenario.node[651].veinsmobility 	totalCO2Emission 	152.25791663346
scalar RSUExampleScenario.node[652].veinsmobility 	startTime 	1956.1
scalar RSUExampleScenario.node[652].veinsmobility 	totalTime 	43.8
scalar RSUExampleScenario.node[652].veinsmobility 	stopTime 	2000
scalar RSUExampleScenario.node[652].veinsmobility 	minSpeed 	0.25504373555188
scalar RSUExampleScenario.node[652].veinsmobility 	maxSpeed 	13.999985551033
scalar RSUExampleScenario.node[652].veinsmobility 	totalDistance 	456.76850431864
scalar RSUExampleScenario.node[652].veinsmobility 	totalCO2Emission 	142.91215561294
scalar RSUExampleScenario.node[653].veinsmobility 	startTime 	1959.1
scalar RSUExampleScenario.node[653].veinsmobility 	totalTime 	40.8
scalar RSUExampleScenario.node[653].veinsmobility 	stopTime 	2000
scalar RSUExampleScenario.node[653].veinsmobility 	minSpeed 	0.25505543867382
scalar RSUExampleScenario.node[653].veinsmobility 	maxSpeed 	13.997530828272
scalar RSUExampleScenario.node[653].veinsmobility 	totalDistance 	411.79930073404
scalar RSUExampleScenario.node[653].veinsmobility 	totalCO2Emission 	136.42020966495
scalar RSUExampleScenario.node[654].veinsmobility 	startTime 	1962.1
scalar RSUExampleScenario.node[654].veinsmobility 	totalTime 	37.8
scalar RSUExampleScenario.node[654].veinsmobility 	stopTime 	2000
scalar RSUExampleScenario.node[654].veinsmobility 	minSpeed 	0.2553345678309
scalar RSUExampleScenario.node[654].veinsmobility 	maxSpeed 	13.998747361493
scalar RSUExampleScenario.node[654].veinsmobility 	totalDistance 	372.81475614124
scalar RSUExampleScenario.node[654].veinsmobility 	totalCO2Emission 	129.88368861363
scalar RSUExampleScenario.node[655].veinsmobility 	startTime 	1965.1
scalar RSUExampleScenario.node[655].veinsmobility 	totalTime 	34.8
scalar RSUExampleScenario.node[655].veinsmobility 	stopTime 	2000
scalar RSUExampleScenario.node[655].veinsmobility 	minSpeed 	0.2508857870393
scalar RSUExampleScenario.node[655].veinsmobility 	maxSpeed 	13.99715381956
scalar RSUExampleScenario.node[655].veinsmobility 	totalDistance 	329.82068269412
scalar RSUExampleScenario.node[655].veinsmobility 	totalCO2Emission 	122.90555580488
scalar RSUExampleScenario.node[656].veinsmobility 	startTime 	1968.1
scalar RSUExampleScenario.node[656].veinsmobility 	totalTime 	31.8
scalar RSUExampleScenario.node[656].veinsmobility 	stopTime 	2000
scalar RSUExampleScenario.node[656].veinsmobility 	minSpeed 	0.25760968255624
scalar RSUExampleScenario.node[656].veinsmobility 	maxSpeed 	13.992592045537
scalar RSUExampleScenario.node[656].veinsmobility 	totalDistance 	288.02142865014
scalar RSUExampleScenario.node[656].veinsmobility 	totalCO2Emission 	115.86382448475
scalar RSUExampleScenario.node[657].veinsmobility 	startTime 	1971.1
scalar RSUExampleScenario.node[657].veinsmobility 	totalTime 	28.8
scalar RSUExampleScenario.node[657].veinsmobility 	stopTime 	2000
scalar RSUExampleScenario.node[657].veinsmobility 	minSpeed 	0.25588067670958
scalar RSUExampleScenario.node[657].veinsmobility 	maxSpeed 	13.887910648154
scalar RSUExampleScenario.node[657].veinsmobility 	totalDistance 	249.51849906256
scalar RSUExampleScenario.node[657].veinsmobility 	totalCO2Emission 	99.41063136615
scalar RSUExampleScenario.node[658].veinsmobility 	startTime 	1974.1
scalar RSUExampleScenario.node[658].veinsmobility 	totalTime 	25.8
scalar RSUExampleScenario.node[658].veinsmobility 	stopTime 	2000
scalar RSUExampleScenario.node[658].veinsmobility 	minSpeed 	0.25444111323613
scalar RSUExampleScenario.node[658].veinsmobility 	maxSpeed 	13.873574740475
scalar RSUExampleScenario.node[658].veinsmobility 	totalDistance 	225.97269287329
scalar RSUExampleScenario.node[658].veinsmobility 	totalCO2Emission 	82.474820202644
scalar RSUExampleScenario.node[659].veinsmobility 	startTime 	1977.1
scalar RSUExampleScenario.node[659].veinsmobility 	totalTime 	22.8
scalar RSUExampleScenario.node[659].veinsmobility 	stopTime 	2000
scalar RSUExampleScenario.node[659].veinsmobility 	minSpeed 	0.25921113332943
scalar RSUExampleScenario.node[659].veinsmobility 	maxSpeed 	13.886722412864
scalar RSUExampleScenario.node[659].veinsmobility 	totalDistance 	207.89675634548
scalar RSUExampleScenario.node[659].veinsmobility 	totalCO2Emission 	78.609656871085
scalar RSUExampleScenario.node[660].veinsmobility 	startTime 	1980.1
scalar RSUExampleScenario.node[660].veinsmobility 	totalTime 	19.8
scalar RSUExampleScenario.node[660].veinsmobility 	stopTime 	2000
scalar RSUExampleScenario.node[660].veinsmobility 	minSpeed 	0.25664234074717
scalar RSUExampleScenario.node[660].veinsmobility 	maxSpeed 	13.884500477291
scalar RSUExampleScenario.node[660].veinsmobility 	totalDistance 	175.84511747737
scalar RSUExampleScenario.node[660].veinsmobility 	totalCO2Emission 	75.509651912343
scalar RSUExampleScenario.node[661].veinsmobility 	startTime 	1983.1
scalar RSUExampleScenario.node[661].veinsmobility 	totalTime 	16.8
scalar RSUExampleScenario.node[661].veinsmobility 	stopTime 	2000
scalar RSUExampleScenario.node[661].veinsmobility 	minSpeed 	0.24797720155027
scalar RSUExampleScenario.node[661].veinsmobility 	maxSpeed 	13.887527022436
scalar RSUExampleScenario.node[661].veinsmobility 	totalDistance 	137.99244566185
scalar RSUExampleScenario.node[661].veinsmobility 	totalCO2Emission 	58.458558714033
scalar RSUExampleScenario.node[662].veinsmobility 	startTime 	1986.1
scalar RSUExampleScenario.node[662].veinsmobility 	totalTime 	13.8
scalar RSUExampleScenario.node[662].veinsmobility 	stopTime 	2000
scalar RSUExampleScenario.node[662].veinsmobility 	minSpeed 	0.25133160866564
scalar RSUExampleScenario.node[662].veinsmobility 	maxSpeed 	13.881807829351
scalar RSUExampleScenario.node[662].veinsmobility 	totalDistance 	116.69280752698
scalar RSUExampleScenario.node[662].veinsmobility 	totalCO2Emission 	43.273758971526
scalar RSUExampleScenario.node[663].veinsmobility 	startTime 	1989.1
scalar RSUExampleScenario.node[663].veinsmobility 	totalTime 	10.8
scalar RSUExampleScenario.node[663].veinsmobility 	stopTime 	2000
scalar RSUExampleScenario.node[663].veinsmobility 	minSpeed 	0.25467749451124
scalar RSUExampleScenario.node[663].veinsmobility 	maxSpeed 	13.87170640599
scalar RSUExampleScenario.node[663].veinsmobility 	totalDistance 	97.965562370687
scalar RSUExampleScenario.node[663].veinsmobility 	totalCO2Emission 	39.552212098106
scalar RSUExampleScenario.node[664].veinsmobility 	startTime 	1992.1
scalar RSUExampleScenario.node[664].veinsmobility 	totalTime 	7.8
scalar RSUExampleScenario.node[664].veinsmobility 	stopTime 	2000
scalar RSUExampleScenario.node[664].veinsmobility 	minSpeed 	0.24846559481719
scalar RSUExampleScenario.node[664].veinsmobility 	maxSpeed 	13.883975335856
scalar RSUExampleScenario.node[664].veinsmobility 	totalDistance 	61.717388926941
scalar RSUExampleScenario.node[664].veinsmobility 	totalCO2Emission 	35.619578320577
scalar RSUExampleScenario.node[665].veinsmobility 	startTime 	1995.1
scalar RSUExampleScenario.node[665].veinsmobility 	totalTime 	4.8
scalar RSUExampleScenario.node[665].veinsmobility 	stopTime 	2000
scalar RSUExampleScenario.node[665].veinsmobility 	minSpeed 	0.25363951385696
scalar RSUExampleScenario.node[665].veinsmobility 	maxSpeed 	9.6180171128606
scalar RSUExampleScenario.node[665].veinsmobility 	totalDistance 	24.889692123859
scalar RSUExampleScenario.node[665].veinsmobility 	totalCO2Emission 	17.902364231817
scalar RSUExampleScenario.node[666].veinsmobility 	startTime 	1998.1
scalar RSUExampleScenario.node[666].veinsmobility 	totalTime 	1.8
scalar RSUExampleScenario.node[666].veinsmobility 	stopTime 	2000
scalar RSUExampleScenario.node[666].veinsmobility 	minSpeed 	0.24883338125027
scalar RSUExampleScenario.node[666].veinsmobility 	maxSpeed 	3.9795443701798
scalar RSUExampleScenario.node[666].veinsmobility 	totalDistance 	4.0161644633102
scalar RSUExampleScenario.node[666].veinsmobility 	totalCO2Emission 	4.0848108913264
