version 2
run statistic-23-20150312-16:16:34-11592
attr c 19
attr configname statistic
attr datetime 20150312-16:16:34
attr experiment statistic
attr inifile omnetpp.ini
attr iterationvars "$p=1/20, $c=19"
attr iterationvars2 "$p=1/20, $c=19, $repetition=23"
attr measurement "$p=1/20, $c=19"
attr network RSUExampleScenario
attr p 1/20
attr processid 11592
attr repetition 23
attr replication #23
attr resultdir results
attr runnumber 23
attr seedset 23

scalar . 	c 	19
scalar RSUExampleScenario.rsu[0].appl 	NumberofCH 	6
scalar RSUExampleScenario.rsu[0].appl 	NumberofON 	80
scalar RSUExampleScenario.rsu[0].appl 	NumberofFN 	14
scalar RSUExampleScenario.rsu[0].appl 	meanClusterNodes 	6
scalar RSUExampleScenario.rsu[0].appl 	varClusterNodes 	2.4494897427832
scalar RSUExampleScenario.rsu[0].appl 	sumCHutility 	221.81898255099
scalar RSUExampleScenario.rsu[0].appl 	meanCHutility 	6
scalar RSUExampleScenario.rsu[0].appl 	varCHutility 	2.4494897427832
scalar RSUExampleScenario.rsu[0].appl 	sumDiffCHutility 	-17.666760598435
scalar RSUExampleScenario.rsu[0].appl 	meanDiffCHutility 	6
scalar RSUExampleScenario.rsu[0].appl 	varDiffCHutility 	2.4494897427832
scalar RSUExampleScenario.rsu[0].appl 	expectedCHutility 	204.15222195255
scalar RSUExampleScenario.rsu[0].appl 	meanExpectedCHutility 	6
scalar RSUExampleScenario.rsu[0].appl 	varExpectedCHutility 	2.4494897427832
