version 2
run statisticLeach-536-20150323-11:01:17-12280
attr c 12
attr configname statisticLeach
attr datetime 20150323-11:01:17
attr experiment statisticLeach
attr inifile omnetpp.ini
attr iterationvars "$p=1/8, $c=12"
attr iterationvars2 "$p=1/8, $c=12, $repetition=6"
attr measurement "$p=1/8, $c=12"
attr network RSUExampleScenario
attr p 1/8
attr processid 12280
attr repetition 6
attr replication #6
attr resultdir results
attr runnumber 536
attr seedset 536

scalar . 	c 	12
scalar RSUExampleScenario.node[0].appl 	meanClusterNodes 	2.25
scalar RSUExampleScenario.node[0].appl 	meanClusterHeadUtility 	8.4248021250398
scalar RSUExampleScenario.node[0].appl 	NumberofCH 	0.10810810810811
scalar RSUExampleScenario.node[0].appl 	NumberofON 	0.37837837837838
scalar RSUExampleScenario.node[0].appl 	NumberofFN 	0.51351351351351
scalar RSUExampleScenario.node[0].veinsmobility 	startTime 	0.1
scalar RSUExampleScenario.node[0].veinsmobility 	totalTime 	449.9
scalar RSUExampleScenario.node[0].veinsmobility 	stopTime 	450
scalar RSUExampleScenario.node[0].veinsmobility 	minSpeed 	0
scalar RSUExampleScenario.node[0].veinsmobility 	maxSpeed 	13.99991588942
scalar RSUExampleScenario.node[0].veinsmobility 	totalDistance 	3137.0504965927
scalar RSUExampleScenario.node[0].veinsmobility 	totalCO2Emission 	834.76236871406
scalar RSUExampleScenario.node[1].appl 	meanClusterNodes 	2.25
scalar RSUExampleScenario.node[1].appl 	meanClusterHeadUtility 	9.8144892249987
scalar RSUExampleScenario.node[1].appl 	NumberofCH 	0.10810810810811
scalar RSUExampleScenario.node[1].appl 	NumberofON 	0.21621621621622
scalar RSUExampleScenario.node[1].appl 	NumberofFN 	0.67567567567568
scalar RSUExampleScenario.node[1].veinsmobility 	startTime 	2.5
scalar RSUExampleScenario.node[1].veinsmobility 	totalTime 	447.5
scalar RSUExampleScenario.node[1].veinsmobility 	stopTime 	450
scalar RSUExampleScenario.node[1].veinsmobility 	minSpeed 	0
scalar RSUExampleScenario.node[1].veinsmobility 	maxSpeed 	13.999953406556
scalar RSUExampleScenario.node[1].veinsmobility 	totalDistance 	3082.3902295508
scalar RSUExampleScenario.node[1].veinsmobility 	totalCO2Emission 	831.73570844721
scalar RSUExampleScenario.node[10].appl 	meanClusterNodes 	5.25
scalar RSUExampleScenario.node[10].appl 	meanClusterHeadUtility 	9.5738414298535
scalar RSUExampleScenario.node[10].appl 	NumberofCH 	0.10810810810811
scalar RSUExampleScenario.node[10].appl 	NumberofON 	0.37837837837838
scalar RSUExampleScenario.node[10].appl 	NumberofFN 	0.51351351351351
scalar RSUExampleScenario.node[10].veinsmobility 	startTime 	24.2
scalar RSUExampleScenario.node[10].veinsmobility 	totalTime 	425.8
scalar RSUExampleScenario.node[10].veinsmobility 	stopTime 	450
scalar RSUExampleScenario.node[10].veinsmobility 	minSpeed 	0
scalar RSUExampleScenario.node[10].veinsmobility 	maxSpeed 	13.999792620726
scalar RSUExampleScenario.node[10].veinsmobility 	totalDistance 	2794.2265542508
scalar RSUExampleScenario.node[10].veinsmobility 	totalCO2Emission 	754.4581067502
scalar RSUExampleScenario.node[11].appl 	meanClusterNodes 	1.75
scalar RSUExampleScenario.node[11].appl 	meanClusterHeadUtility 	8.4157656724862
scalar RSUExampleScenario.node[11].appl 	NumberofCH 	0.10810810810811
scalar RSUExampleScenario.node[11].appl 	NumberofON 	0.59459459459459
scalar RSUExampleScenario.node[11].appl 	NumberofFN 	0.2972972972973
scalar RSUExampleScenario.node[11].veinsmobility 	startTime 	26.6
scalar RSUExampleScenario.node[11].veinsmobility 	totalTime 	423.4
scalar RSUExampleScenario.node[11].veinsmobility 	stopTime 	450
scalar RSUExampleScenario.node[11].veinsmobility 	minSpeed 	0
scalar RSUExampleScenario.node[11].veinsmobility 	maxSpeed 	13.999860276782
scalar RSUExampleScenario.node[11].veinsmobility 	totalDistance 	2755.3670966984
scalar RSUExampleScenario.node[11].veinsmobility 	totalCO2Emission 	755.30630050574
scalar RSUExampleScenario.node[12].appl 	meanClusterNodes 	5.5
scalar RSUExampleScenario.node[12].appl 	meanClusterHeadUtility 	9.0734158652336
scalar RSUExampleScenario.node[12].appl 	NumberofCH 	0.10810810810811
scalar RSUExampleScenario.node[12].appl 	NumberofON 	0.37837837837838
scalar RSUExampleScenario.node[12].appl 	NumberofFN 	0.51351351351351
scalar RSUExampleScenario.node[12].veinsmobility 	startTime 	29
scalar RSUExampleScenario.node[12].veinsmobility 	totalTime 	421
scalar RSUExampleScenario.node[12].veinsmobility 	stopTime 	450
scalar RSUExampleScenario.node[12].veinsmobility 	minSpeed 	0
scalar RSUExampleScenario.node[12].veinsmobility 	maxSpeed 	13.999990208156
scalar RSUExampleScenario.node[12].veinsmobility 	totalDistance 	2722.3248817828
scalar RSUExampleScenario.node[12].veinsmobility 	totalCO2Emission 	748.24627785734
scalar RSUExampleScenario.node[13].appl 	meanClusterNodes 	6.25
scalar RSUExampleScenario.node[13].appl 	meanClusterHeadUtility 	8.7333107324582
scalar RSUExampleScenario.node[13].appl 	NumberofCH 	0.10810810810811
scalar RSUExampleScenario.node[13].appl 	NumberofON 	0.56756756756757
scalar RSUExampleScenario.node[13].appl 	NumberofFN 	0.32432432432432
scalar RSUExampleScenario.node[13].veinsmobility 	startTime 	31.4
scalar RSUExampleScenario.node[13].veinsmobility 	totalTime 	418.6
scalar RSUExampleScenario.node[13].veinsmobility 	stopTime 	450
scalar RSUExampleScenario.node[13].veinsmobility 	minSpeed 	0
scalar RSUExampleScenario.node[13].veinsmobility 	maxSpeed 	13.999998773572
scalar RSUExampleScenario.node[13].veinsmobility 	totalDistance 	2680.1167408396
scalar RSUExampleScenario.node[13].veinsmobility 	totalCO2Emission 	742.04880405522
scalar RSUExampleScenario.node[14].appl 	meanClusterNodes 	3.25
scalar RSUExampleScenario.node[14].appl 	meanClusterHeadUtility 	8.7597835030669
scalar RSUExampleScenario.node[14].appl 	NumberofCH 	0.10810810810811
scalar RSUExampleScenario.node[14].appl 	NumberofON 	0.83783783783784
scalar RSUExampleScenario.node[14].appl 	NumberofFN 	0.054054054054054
scalar RSUExampleScenario.node[14].veinsmobility 	startTime 	33.8
scalar RSUExampleScenario.node[14].veinsmobility 	totalTime 	416.2
scalar RSUExampleScenario.node[14].veinsmobility 	stopTime 	450
scalar RSUExampleScenario.node[14].veinsmobility 	minSpeed 	0
scalar RSUExampleScenario.node[14].veinsmobility 	maxSpeed 	13.999946026888
scalar RSUExampleScenario.node[14].veinsmobility 	totalDistance 	2652.0361072615
scalar RSUExampleScenario.node[14].veinsmobility 	totalCO2Emission 	739.12244404505
scalar RSUExampleScenario.node[15].appl 	meanClusterNodes 	3
scalar RSUExampleScenario.node[15].appl 	meanClusterHeadUtility 	12.321595090124
scalar RSUExampleScenario.node[15].appl 	NumberofCH 	0.081081081081081
scalar RSUExampleScenario.node[15].appl 	NumberofON 	0.89189189189189
scalar RSUExampleScenario.node[15].appl 	NumberofFN 	0.027027027027027
scalar RSUExampleScenario.node[15].veinsmobility 	startTime 	36.2
scalar RSUExampleScenario.node[15].veinsmobility 	totalTime 	413.8
scalar RSUExampleScenario.node[15].veinsmobility 	stopTime 	450
scalar RSUExampleScenario.node[15].veinsmobility 	minSpeed 	0
scalar RSUExampleScenario.node[15].veinsmobility 	maxSpeed 	13.999990561535
scalar RSUExampleScenario.node[15].veinsmobility 	totalDistance 	2613.5502418794
scalar RSUExampleScenario.node[15].veinsmobility 	totalCO2Emission 	728.40104475856
scalar RSUExampleScenario.node[16].appl 	meanClusterNodes 	6.25
scalar RSUExampleScenario.node[16].appl 	meanClusterHeadUtility 	7.744985124091
scalar RSUExampleScenario.node[16].appl 	NumberofCH 	0.10810810810811
scalar RSUExampleScenario.node[16].appl 	NumberofON 	0.59459459459459
scalar RSUExampleScenario.node[16].appl 	NumberofFN 	0.2972972972973
scalar RSUExampleScenario.node[16].veinsmobility 	startTime 	38.6
scalar RSUExampleScenario.node[16].veinsmobility 	totalTime 	411.4
scalar RSUExampleScenario.node[16].veinsmobility 	stopTime 	450
scalar RSUExampleScenario.node[16].veinsmobility 	minSpeed 	0
scalar RSUExampleScenario.node[16].veinsmobility 	maxSpeed 	13.999940742794
scalar RSUExampleScenario.node[16].veinsmobility 	totalDistance 	2584.4411648084
scalar RSUExampleScenario.node[16].veinsmobility 	totalCO2Emission 	724.83175095927
scalar RSUExampleScenario.node[17].appl 	meanClusterNodes 	3.25
scalar RSUExampleScenario.node[17].appl 	meanClusterHeadUtility 	8.9232549045401
scalar RSUExampleScenario.node[17].appl 	NumberofCH 	0.10810810810811
scalar RSUExampleScenario.node[17].appl 	NumberofON 	0.81081081081081
scalar RSUExampleScenario.node[17].appl 	NumberofFN 	0.081081081081081
scalar RSUExampleScenario.node[17].veinsmobility 	startTime 	41
scalar RSUExampleScenario.node[17].veinsmobility 	totalTime 	409
scalar RSUExampleScenario.node[17].veinsmobility 	stopTime 	450
scalar RSUExampleScenario.node[17].veinsmobility 	minSpeed 	0
scalar RSUExampleScenario.node[17].veinsmobility 	maxSpeed 	13.999974302331
scalar RSUExampleScenario.node[17].veinsmobility 	totalDistance 	2538.1346265981
scalar RSUExampleScenario.node[17].veinsmobility 	totalCO2Emission 	717.18885876437
scalar RSUExampleScenario.node[18].appl 	meanClusterNodes 	5.6666666666667
scalar RSUExampleScenario.node[18].appl 	meanClusterHeadUtility 	5.6683055733552
scalar RSUExampleScenario.node[18].appl 	NumberofCH 	0.16216216216216
scalar RSUExampleScenario.node[18].appl 	NumberofON 	0.48648648648649
scalar RSUExampleScenario.node[18].appl 	NumberofFN 	0.35135135135135
scalar RSUExampleScenario.node[18].veinsmobility 	startTime 	43.4
scalar RSUExampleScenario.node[18].veinsmobility 	totalTime 	406.6
scalar RSUExampleScenario.node[18].veinsmobility 	stopTime 	450
scalar RSUExampleScenario.node[18].veinsmobility 	minSpeed 	0
scalar RSUExampleScenario.node[18].veinsmobility 	maxSpeed 	13.999998114002
scalar RSUExampleScenario.node[18].veinsmobility 	totalDistance 	2507.2969320806
scalar RSUExampleScenario.node[18].veinsmobility 	totalCO2Emission 	714.29611192462
scalar RSUExampleScenario.node[19].appl 	meanClusterNodes 	4.3333333333333
scalar RSUExampleScenario.node[19].appl 	meanClusterHeadUtility 	5.82255196149
scalar RSUExampleScenario.node[19].appl 	NumberofCH 	0.16216216216216
scalar RSUExampleScenario.node[19].appl 	NumberofON 	0.45945945945946
scalar RSUExampleScenario.node[19].appl 	NumberofFN 	0.37837837837838
scalar RSUExampleScenario.node[19].veinsmobility 	startTime 	45.8
scalar RSUExampleScenario.node[19].veinsmobility 	totalTime 	404.2
scalar RSUExampleScenario.node[19].veinsmobility 	stopTime 	450
scalar RSUExampleScenario.node[19].veinsmobility 	minSpeed 	0
scalar RSUExampleScenario.node[19].veinsmobility 	maxSpeed 	13.999952189268
scalar RSUExampleScenario.node[19].veinsmobility 	totalDistance 	2470.0960374646
scalar RSUExampleScenario.node[19].veinsmobility 	totalCO2Emission 	705.04734755746
scalar RSUExampleScenario.node[2].appl 	meanClusterNodes 	3.1666666666667
scalar RSUExampleScenario.node[2].appl 	meanClusterHeadUtility 	6.2994003941889
scalar RSUExampleScenario.node[2].appl 	NumberofCH 	0.16216216216216
scalar RSUExampleScenario.node[2].appl 	NumberofON 	0.27027027027027
scalar RSUExampleScenario.node[2].appl 	NumberofFN 	0.56756756756757
scalar RSUExampleScenario.node[2].veinsmobility 	startTime 	4.9
scalar RSUExampleScenario.node[2].veinsmobility 	totalTime 	445.1
scalar RSUExampleScenario.node[2].veinsmobility 	stopTime 	450
scalar RSUExampleScenario.node[2].veinsmobility 	minSpeed 	0
scalar RSUExampleScenario.node[2].veinsmobility 	maxSpeed 	13.999949927372
scalar RSUExampleScenario.node[2].veinsmobility 	totalDistance 	3040.1131292
scalar RSUExampleScenario.node[2].veinsmobility 	totalCO2Emission 	820.1784237305
scalar RSUExampleScenario.node[20].appl 	meanClusterNodes 	2
scalar RSUExampleScenario.node[20].appl 	meanClusterHeadUtility 	7.9923214622949
scalar RSUExampleScenario.node[20].appl 	NumberofCH 	0.10810810810811
scalar RSUExampleScenario.node[20].appl 	NumberofON 	0.43243243243243
scalar RSUExampleScenario.node[20].appl 	NumberofFN 	0.45945945945946
scalar RSUExampleScenario.node[20].veinsmobility 	startTime 	48.3
scalar RSUExampleScenario.node[20].veinsmobility 	totalTime 	401.7
scalar RSUExampleScenario.node[20].veinsmobility 	stopTime 	450
scalar RSUExampleScenario.node[20].veinsmobility 	minSpeed 	0
scalar RSUExampleScenario.node[20].veinsmobility 	maxSpeed 	13.999942658122
scalar RSUExampleScenario.node[20].veinsmobility 	totalDistance 	2442.1555525499
scalar RSUExampleScenario.node[20].veinsmobility 	totalCO2Emission 	700.53889167839
scalar RSUExampleScenario.node[21].appl 	meanClusterNodes 	1.25
scalar RSUExampleScenario.node[21].appl 	meanClusterHeadUtility 	9.1214590022023
scalar RSUExampleScenario.node[21].appl 	NumberofCH 	0.10810810810811
scalar RSUExampleScenario.node[21].appl 	NumberofON 	0.89189189189189
scalar RSUExampleScenario.node[21].appl 	NumberofFN 	0
scalar RSUExampleScenario.node[21].veinsmobility 	startTime 	50.7
scalar RSUExampleScenario.node[21].veinsmobility 	totalTime 	399.3
scalar RSUExampleScenario.node[21].veinsmobility 	stopTime 	450
scalar RSUExampleScenario.node[21].veinsmobility 	minSpeed 	0
scalar RSUExampleScenario.node[21].veinsmobility 	maxSpeed 	13.999939292171
scalar RSUExampleScenario.node[21].veinsmobility 	totalDistance 	2404.8960077577
scalar RSUExampleScenario.node[21].veinsmobility 	totalCO2Emission 	695.86384572313
scalar RSUExampleScenario.node[22].appl 	meanClusterNodes 	6.8
scalar RSUExampleScenario.node[22].appl 	meanClusterHeadUtility 	6.8949443859578
scalar RSUExampleScenario.node[22].appl 	NumberofCH 	0.13513513513514
scalar RSUExampleScenario.node[22].appl 	NumberofON 	0.43243243243243
scalar RSUExampleScenario.node[22].appl 	NumberofFN 	0.43243243243243
scalar RSUExampleScenario.node[22].veinsmobility 	startTime 	53.1
scalar RSUExampleScenario.node[22].veinsmobility 	totalTime 	396.9
scalar RSUExampleScenario.node[22].veinsmobility 	stopTime 	450
scalar RSUExampleScenario.node[22].veinsmobility 	minSpeed 	0
scalar RSUExampleScenario.node[22].veinsmobility 	maxSpeed 	13.999968399196
scalar RSUExampleScenario.node[22].veinsmobility 	totalDistance 	2375.4874213164
scalar RSUExampleScenario.node[22].veinsmobility 	totalCO2Emission 	687.48809931466
scalar RSUExampleScenario.node[23].appl 	meanClusterNodes 	4.25
scalar RSUExampleScenario.node[23].appl 	meanClusterHeadUtility 	8.7146280981265
scalar RSUExampleScenario.node[23].appl 	NumberofCH 	0.10810810810811
scalar RSUExampleScenario.node[23].appl 	NumberofON 	0.83783783783784
scalar RSUExampleScenario.node[23].appl 	NumberofFN 	0.054054054054054
scalar RSUExampleScenario.node[23].veinsmobility 	startTime 	55.5
scalar RSUExampleScenario.node[23].veinsmobility 	totalTime 	394.5
scalar RSUExampleScenario.node[23].veinsmobility 	stopTime 	450
scalar RSUExampleScenario.node[23].veinsmobility 	minSpeed 	0
scalar RSUExampleScenario.node[23].veinsmobility 	maxSpeed 	13.999792655746
scalar RSUExampleScenario.node[23].veinsmobility 	totalDistance 	2334.3596258055
scalar RSUExampleScenario.node[23].veinsmobility 	totalCO2Emission 	684.48371065082
scalar RSUExampleScenario.node[24].appl 	meanClusterNodes 	2
scalar RSUExampleScenario.node[24].appl 	meanClusterHeadUtility 	7.8364872398634
scalar RSUExampleScenario.node[24].appl 	NumberofCH 	0.10810810810811
scalar RSUExampleScenario.node[24].appl 	NumberofON 	0.54054054054054
scalar RSUExampleScenario.node[24].appl 	NumberofFN 	0.35135135135135
scalar RSUExampleScenario.node[24].veinsmobility 	startTime 	57.9
scalar RSUExampleScenario.node[24].veinsmobility 	totalTime 	392.1
scalar RSUExampleScenario.node[24].veinsmobility 	stopTime 	450
scalar RSUExampleScenario.node[24].veinsmobility 	minSpeed 	0
scalar RSUExampleScenario.node[24].veinsmobility 	maxSpeed 	13.999986178579
scalar RSUExampleScenario.node[24].veinsmobility 	totalDistance 	2306.7349799671
scalar RSUExampleScenario.node[24].veinsmobility 	totalCO2Emission 	674.85916855192
scalar RSUExampleScenario.node[25].appl 	meanClusterNodes 	5
scalar RSUExampleScenario.node[25].appl 	meanClusterHeadUtility 	5.4220476874175
scalar RSUExampleScenario.node[25].appl 	NumberofCH 	0.16216216216216
scalar RSUExampleScenario.node[25].appl 	NumberofON 	0.59459459459459
scalar RSUExampleScenario.node[25].appl 	NumberofFN 	0.24324324324324
scalar RSUExampleScenario.node[25].veinsmobility 	startTime 	60.3
scalar RSUExampleScenario.node[25].veinsmobility 	totalTime 	389.7
scalar RSUExampleScenario.node[25].veinsmobility 	stopTime 	450
scalar RSUExampleScenario.node[25].veinsmobility 	minSpeed 	0
scalar RSUExampleScenario.node[25].veinsmobility 	maxSpeed 	13.999853913605
scalar RSUExampleScenario.node[25].veinsmobility 	totalDistance 	2268.1647390496
scalar RSUExampleScenario.node[25].veinsmobility 	totalCO2Emission 	671.29883967309
scalar RSUExampleScenario.node[26].appl 	meanClusterNodes 	11
scalar RSUExampleScenario.node[26].appl 	meanClusterHeadUtility 	8.6407402094823
scalar RSUExampleScenario.node[26].appl 	NumberofCH 	0.10810810810811
scalar RSUExampleScenario.node[26].appl 	NumberofON 	0.45945945945946
scalar RSUExampleScenario.node[26].appl 	NumberofFN 	0.43243243243243
scalar RSUExampleScenario.node[26].veinsmobility 	startTime 	62.7
scalar RSUExampleScenario.node[26].veinsmobility 	totalTime 	387.3
scalar RSUExampleScenario.node[26].veinsmobility 	stopTime 	450
scalar RSUExampleScenario.node[26].veinsmobility 	minSpeed 	0
scalar RSUExampleScenario.node[26].veinsmobility 	maxSpeed 	13.999731769457
scalar RSUExampleScenario.node[26].veinsmobility 	totalDistance 	2237.4658359431
scalar RSUExampleScenario.node[26].veinsmobility 	totalCO2Emission 	664.90723401197
scalar RSUExampleScenario.node[27].appl 	meanClusterNodes 	3.25
scalar RSUExampleScenario.node[27].appl 	meanClusterHeadUtility 	9.0094444918745
scalar RSUExampleScenario.node[27].appl 	NumberofCH 	0.10810810810811
scalar RSUExampleScenario.node[27].appl 	NumberofON 	0.78378378378378
scalar RSUExampleScenario.node[27].appl 	NumberofFN 	0.10810810810811
scalar RSUExampleScenario.node[27].veinsmobility 	startTime 	65.1
scalar RSUExampleScenario.node[27].veinsmobility 	totalTime 	384.9
scalar RSUExampleScenario.node[27].veinsmobility 	stopTime 	450
scalar RSUExampleScenario.node[27].veinsmobility 	minSpeed 	0
scalar RSUExampleScenario.node[27].veinsmobility 	maxSpeed 	13.999859028501
scalar RSUExampleScenario.node[27].veinsmobility 	totalDistance 	2199.1518131605
scalar RSUExampleScenario.node[27].veinsmobility 	totalCO2Emission 	663.98096595095
scalar RSUExampleScenario.node[28].appl 	meanClusterNodes 	3.75
scalar RSUExampleScenario.node[28].appl 	meanClusterHeadUtility 	8.862494796217
scalar RSUExampleScenario.node[28].appl 	NumberofCH 	0.10810810810811
scalar RSUExampleScenario.node[28].appl 	NumberofON 	0.72972972972973
scalar RSUExampleScenario.node[28].appl 	NumberofFN 	0.16216216216216
scalar RSUExampleScenario.node[28].veinsmobility 	startTime 	67.5
scalar RSUExampleScenario.node[28].veinsmobility 	totalTime 	382.5
scalar RSUExampleScenario.node[28].veinsmobility 	stopTime 	450
scalar RSUExampleScenario.node[28].veinsmobility 	minSpeed 	0
scalar RSUExampleScenario.node[28].veinsmobility 	maxSpeed 	13.999923427147
scalar RSUExampleScenario.node[28].veinsmobility 	totalDistance 	2167.2431655503
scalar RSUExampleScenario.node[28].veinsmobility 	totalCO2Emission 	653.05233130767
scalar RSUExampleScenario.node[29].appl 	meanClusterNodes 	4
scalar RSUExampleScenario.node[29].appl 	meanClusterHeadUtility 	5.2053317431058
scalar RSUExampleScenario.node[29].appl 	NumberofCH 	0.16216216216216
scalar RSUExampleScenario.node[29].appl 	NumberofON 	0.7027027027027
scalar RSUExampleScenario.node[29].appl 	NumberofFN 	0.13513513513514
scalar RSUExampleScenario.node[29].veinsmobility 	startTime 	69.9
scalar RSUExampleScenario.node[29].veinsmobility 	totalTime 	380.1
scalar RSUExampleScenario.node[29].veinsmobility 	stopTime 	450
scalar RSUExampleScenario.node[29].veinsmobility 	minSpeed 	0
scalar RSUExampleScenario.node[29].veinsmobility 	maxSpeed 	13.999980927901
scalar RSUExampleScenario.node[29].veinsmobility 	totalDistance 	2131.6934853046
scalar RSUExampleScenario.node[29].veinsmobility 	totalCO2Emission 	652.88976070455
scalar RSUExampleScenario.node[3].appl 	meanClusterNodes 	1.5
scalar RSUExampleScenario.node[3].appl 	meanClusterHeadUtility 	8.3743508580998
scalar RSUExampleScenario.node[3].appl 	NumberofCH 	0.10810810810811
scalar RSUExampleScenario.node[3].appl 	NumberofON 	0.64864864864865
scalar RSUExampleScenario.node[3].appl 	NumberofFN 	0.24324324324324
scalar RSUExampleScenario.node[3].veinsmobility 	startTime 	7.3
scalar RSUExampleScenario.node[3].veinsmobility 	totalTime 	442.7
scalar RSUExampleScenario.node[3].veinsmobility 	stopTime 	450
scalar RSUExampleScenario.node[3].veinsmobility 	minSpeed 	0
scalar RSUExampleScenario.node[3].veinsmobility 	maxSpeed 	13.999916172123
scalar RSUExampleScenario.node[3].veinsmobility 	totalDistance 	2995.7998354824
scalar RSUExampleScenario.node[3].veinsmobility 	totalCO2Emission 	813.9477582509
scalar RSUExampleScenario.node[30].appl 	meanClusterNodes 	3
scalar RSUExampleScenario.node[30].appl 	meanClusterHeadUtility 	7.6580390168368
scalar RSUExampleScenario.node[30].appl 	NumberofCH 	0.10810810810811
scalar RSUExampleScenario.node[30].appl 	NumberofON 	0.67567567567568
scalar RSUExampleScenario.node[30].appl 	NumberofFN 	0.21621621621622
scalar RSUExampleScenario.node[30].veinsmobility 	startTime 	72.4
scalar RSUExampleScenario.node[30].veinsmobility 	totalTime 	377.6
scalar RSUExampleScenario.node[30].veinsmobility 	stopTime 	450
scalar RSUExampleScenario.node[30].veinsmobility 	minSpeed 	0
scalar RSUExampleScenario.node[30].veinsmobility 	maxSpeed 	13.999950196878
scalar RSUExampleScenario.node[30].veinsmobility 	totalDistance 	2101.4426108972
scalar RSUExampleScenario.node[30].veinsmobility 	totalCO2Emission 	640.58090702457
scalar RSUExampleScenario.node[31].appl 	meanClusterNodes 	3.75
scalar RSUExampleScenario.node[31].appl 	meanClusterHeadUtility 	8.3121741155782
scalar RSUExampleScenario.node[31].appl 	NumberofCH 	0.10810810810811
scalar RSUExampleScenario.node[31].appl 	NumberofON 	0.75675675675676
scalar RSUExampleScenario.node[31].appl 	NumberofFN 	0.13513513513514
scalar RSUExampleScenario.node[31].veinsmobility 	startTime 	74.8
scalar RSUExampleScenario.node[31].veinsmobility 	totalTime 	375.2
scalar RSUExampleScenario.node[31].veinsmobility 	stopTime 	450
scalar RSUExampleScenario.node[31].veinsmobility 	minSpeed 	0
scalar RSUExampleScenario.node[31].veinsmobility 	maxSpeed 	13.999935936118
scalar RSUExampleScenario.node[31].veinsmobility 	totalDistance 	2064.5388815018
scalar RSUExampleScenario.node[31].veinsmobility 	totalCO2Emission 	638.01039143502
scalar RSUExampleScenario.node[32].appl 	meanClusterNodes 	2.3333333333333
scalar RSUExampleScenario.node[32].appl 	meanClusterHeadUtility 	5.8675256571318
scalar RSUExampleScenario.node[32].appl 	NumberofCH 	0.16216216216216
scalar RSUExampleScenario.node[32].appl 	NumberofON 	0.64864864864865
scalar RSUExampleScenario.node[32].appl 	NumberofFN 	0.18918918918919
scalar RSUExampleScenario.node[32].veinsmobility 	startTime 	77.2
scalar RSUExampleScenario.node[32].veinsmobility 	totalTime 	372.8
scalar RSUExampleScenario.node[32].veinsmobility 	stopTime 	450
scalar RSUExampleScenario.node[32].veinsmobility 	minSpeed 	0
scalar RSUExampleScenario.node[32].veinsmobility 	maxSpeed 	13.999895867754
scalar RSUExampleScenario.node[32].veinsmobility 	totalDistance 	2031.1867647388
scalar RSUExampleScenario.node[32].veinsmobility 	totalCO2Emission 	632.27309186041
scalar RSUExampleScenario.node[33].appl 	meanClusterNodes 	4.8333333333333
scalar RSUExampleScenario.node[33].appl 	meanClusterHeadUtility 	5.2359358902633
scalar RSUExampleScenario.node[33].appl 	NumberofCH 	0.16216216216216
scalar RSUExampleScenario.node[33].appl 	NumberofON 	0.75675675675676
scalar RSUExampleScenario.node[33].appl 	NumberofFN 	0.081081081081081
scalar RSUExampleScenario.node[33].veinsmobility 	startTime 	79.6
scalar RSUExampleScenario.node[33].veinsmobility 	totalTime 	370.4
scalar RSUExampleScenario.node[33].veinsmobility 	stopTime 	450
scalar RSUExampleScenario.node[33].veinsmobility 	minSpeed 	0
scalar RSUExampleScenario.node[33].veinsmobility 	maxSpeed 	13.999953938909
scalar RSUExampleScenario.node[33].veinsmobility 	totalDistance 	1998.6819610243
scalar RSUExampleScenario.node[33].veinsmobility 	totalCO2Emission 	625.32601559811
scalar RSUExampleScenario.node[34].appl 	meanClusterNodes 	3.25
scalar RSUExampleScenario.node[34].appl 	meanClusterHeadUtility 	8.1819565546936
scalar RSUExampleScenario.node[34].appl 	NumberofCH 	0.10810810810811
scalar RSUExampleScenario.node[34].appl 	NumberofON 	0.81081081081081
scalar RSUExampleScenario.node[34].appl 	NumberofFN 	0.081081081081081
scalar RSUExampleScenario.node[34].veinsmobility 	startTime 	82
scalar RSUExampleScenario.node[34].veinsmobility 	totalTime 	368
scalar RSUExampleScenario.node[34].veinsmobility 	stopTime 	450
scalar RSUExampleScenario.node[34].veinsmobility 	minSpeed 	0
scalar RSUExampleScenario.node[34].veinsmobility 	maxSpeed 	13.999787439997
scalar RSUExampleScenario.node[34].veinsmobility 	totalDistance 	1965.3509148352
scalar RSUExampleScenario.node[34].veinsmobility 	totalCO2Emission 	618.78300926119
scalar RSUExampleScenario.node[35].appl 	meanClusterNodes 	7
scalar RSUExampleScenario.node[35].appl 	meanClusterHeadUtility 	8.3870609159745
scalar RSUExampleScenario.node[35].appl 	NumberofCH 	0.10810810810811
scalar RSUExampleScenario.node[35].appl 	NumberofON 	0.72972972972973
scalar RSUExampleScenario.node[35].appl 	NumberofFN 	0.16216216216216
scalar RSUExampleScenario.node[35].veinsmobility 	startTime 	84.4
scalar RSUExampleScenario.node[35].veinsmobility 	totalTime 	365.6
scalar RSUExampleScenario.node[35].veinsmobility 	stopTime 	450
scalar RSUExampleScenario.node[35].veinsmobility 	minSpeed 	0
scalar RSUExampleScenario.node[35].veinsmobility 	maxSpeed 	13.999977552113
scalar RSUExampleScenario.node[35].veinsmobility 	totalDistance 	1930.8286093771
scalar RSUExampleScenario.node[35].veinsmobility 	totalCO2Emission 	617.91831441943
scalar RSUExampleScenario.node[36].appl 	meanClusterNodes 	4.6666666666667
scalar RSUExampleScenario.node[36].appl 	meanClusterHeadUtility 	5.6384686431624
scalar RSUExampleScenario.node[36].appl 	NumberofCH 	0.16216216216216
scalar RSUExampleScenario.node[36].appl 	NumberofON 	0.7027027027027
scalar RSUExampleScenario.node[36].appl 	NumberofFN 	0.13513513513514
scalar RSUExampleScenario.node[36].veinsmobility 	startTime 	86.8
scalar RSUExampleScenario.node[36].veinsmobility 	totalTime 	363.2
scalar RSUExampleScenario.node[36].veinsmobility 	stopTime 	450
scalar RSUExampleScenario.node[36].veinsmobility 	minSpeed 	0
scalar RSUExampleScenario.node[36].veinsmobility 	maxSpeed 	13.99983414277
scalar RSUExampleScenario.node[36].veinsmobility 	totalDistance 	1897.530737229
scalar RSUExampleScenario.node[36].veinsmobility 	totalCO2Emission 	611.55975659696
scalar RSUExampleScenario.node[37].appl 	meanClusterNodes 	5.5
scalar RSUExampleScenario.node[37].appl 	meanClusterHeadUtility 	8.1870422140069
scalar RSUExampleScenario.node[37].appl 	NumberofCH 	0.10810810810811
scalar RSUExampleScenario.node[37].appl 	NumberofON 	0.45945945945946
scalar RSUExampleScenario.node[37].appl 	NumberofFN 	0.43243243243243
scalar RSUExampleScenario.node[37].veinsmobility 	startTime 	89.2
scalar RSUExampleScenario.node[37].veinsmobility 	totalTime 	360.8
scalar RSUExampleScenario.node[37].veinsmobility 	stopTime 	450
scalar RSUExampleScenario.node[37].veinsmobility 	minSpeed 	0
scalar RSUExampleScenario.node[37].veinsmobility 	maxSpeed 	13.999805066769
scalar RSUExampleScenario.node[37].veinsmobility 	totalDistance 	1862.2739679999
scalar RSUExampleScenario.node[37].veinsmobility 	totalCO2Emission 	605.42694114678
scalar RSUExampleScenario.node[38].appl 	meanClusterNodes 	6.5
scalar RSUExampleScenario.node[38].appl 	meanClusterHeadUtility 	8.4117510322187
scalar RSUExampleScenario.node[38].appl 	NumberofCH 	0.10810810810811
scalar RSUExampleScenario.node[38].appl 	NumberofON 	0.54054054054054
scalar RSUExampleScenario.node[38].appl 	NumberofFN 	0.35135135135135
scalar RSUExampleScenario.node[38].veinsmobility 	startTime 	91.6
scalar RSUExampleScenario.node[38].veinsmobility 	totalTime 	358.4
scalar RSUExampleScenario.node[38].veinsmobility 	stopTime 	450
scalar RSUExampleScenario.node[38].veinsmobility 	minSpeed 	0
scalar RSUExampleScenario.node[38].veinsmobility 	maxSpeed 	13.999974090001
scalar RSUExampleScenario.node[38].veinsmobility 	totalDistance 	1829.1756144367
scalar RSUExampleScenario.node[38].veinsmobility 	totalCO2Emission 	595.7423579877
scalar RSUExampleScenario.node[39].appl 	meanClusterNodes 	5.5
scalar RSUExampleScenario.node[39].appl 	meanClusterHeadUtility 	5.4175015096823
scalar RSUExampleScenario.node[39].appl 	NumberofCH 	0.16216216216216
scalar RSUExampleScenario.node[39].appl 	NumberofON 	0.78378378378378
scalar RSUExampleScenario.node[39].appl 	NumberofFN 	0.054054054054054
scalar RSUExampleScenario.node[39].veinsmobility 	startTime 	94
scalar RSUExampleScenario.node[39].veinsmobility 	totalTime 	356
scalar RSUExampleScenario.node[39].veinsmobility 	stopTime 	450
scalar RSUExampleScenario.node[39].veinsmobility 	minSpeed 	0
scalar RSUExampleScenario.node[39].veinsmobility 	maxSpeed 	13.999967461887
scalar RSUExampleScenario.node[39].veinsmobility 	totalDistance 	1796.0137330109
scalar RSUExampleScenario.node[39].veinsmobility 	totalCO2Emission 	593.35267694837
scalar RSUExampleScenario.node[4].appl 	meanClusterNodes 	7.25
scalar RSUExampleScenario.node[4].appl 	meanClusterHeadUtility 	9.8328239297186
scalar RSUExampleScenario.node[4].appl 	NumberofCH 	0.10810810810811
scalar RSUExampleScenario.node[4].appl 	NumberofON 	0.45945945945946
scalar RSUExampleScenario.node[4].appl 	NumberofFN 	0.43243243243243
scalar RSUExampleScenario.node[4].veinsmobility 	startTime 	9.7
scalar RSUExampleScenario.node[4].veinsmobility 	totalTime 	440.3
scalar RSUExampleScenario.node[4].veinsmobility 	stopTime 	450
scalar RSUExampleScenario.node[4].veinsmobility 	minSpeed 	0
scalar RSUExampleScenario.node[4].veinsmobility 	maxSpeed 	13.99992474556
scalar RSUExampleScenario.node[4].veinsmobility 	totalDistance 	2953.1998447195
scalar RSUExampleScenario.node[4].veinsmobility 	totalCO2Emission 	800.62442785309
scalar RSUExampleScenario.node[40].appl 	meanClusterNodes 	5.5
scalar RSUExampleScenario.node[40].appl 	meanClusterHeadUtility 	6.0784508539115
scalar RSUExampleScenario.node[40].appl 	NumberofCH 	0.16216216216216
scalar RSUExampleScenario.node[40].appl 	NumberofON 	0.78378378378378
scalar RSUExampleScenario.node[40].appl 	NumberofFN 	0.054054054054054
scalar RSUExampleScenario.node[40].veinsmobility 	startTime 	96.5
scalar RSUExampleScenario.node[40].veinsmobility 	totalTime 	353.5
scalar RSUExampleScenario.node[40].veinsmobility 	stopTime 	450
scalar RSUExampleScenario.node[40].veinsmobility 	minSpeed 	0
scalar RSUExampleScenario.node[40].veinsmobility 	maxSpeed 	13.999898958267
scalar RSUExampleScenario.node[40].veinsmobility 	totalDistance 	1761.7651598453
scalar RSUExampleScenario.node[40].veinsmobility 	totalCO2Emission 	586.04166448635
scalar RSUExampleScenario.node[41].appl 	meanClusterNodes 	2.75
scalar RSUExampleScenario.node[41].appl 	meanClusterHeadUtility 	8.2411547537699
scalar RSUExampleScenario.node[41].appl 	NumberofCH 	0.10810810810811
scalar RSUExampleScenario.node[41].appl 	NumberofON 	0.78378378378378
scalar RSUExampleScenario.node[41].appl 	NumberofFN 	0.10810810810811
scalar RSUExampleScenario.node[41].veinsmobility 	startTime 	98.9
scalar RSUExampleScenario.node[41].veinsmobility 	totalTime 	351.1
scalar RSUExampleScenario.node[41].veinsmobility 	stopTime 	450
scalar RSUExampleScenario.node[41].veinsmobility 	minSpeed 	0
scalar RSUExampleScenario.node[41].veinsmobility 	maxSpeed 	13.999930846223
scalar RSUExampleScenario.node[41].veinsmobility 	totalDistance 	1729.5312264843
scalar RSUExampleScenario.node[41].veinsmobility 	totalCO2Emission 	578.91165402821
scalar RSUExampleScenario.node[42].appl 	meanClusterNodes 	3.3333333333333
scalar RSUExampleScenario.node[42].appl 	meanClusterHeadUtility 	10.902177270082
scalar RSUExampleScenario.node[42].appl 	NumberofCH 	0.081081081081081
scalar RSUExampleScenario.node[42].appl 	NumberofON 	0.81081081081081
scalar RSUExampleScenario.node[42].appl 	NumberofFN 	0.10810810810811
scalar RSUExampleScenario.node[42].veinsmobility 	startTime 	101.3
scalar RSUExampleScenario.node[42].veinsmobility 	totalTime 	348.7
scalar RSUExampleScenario.node[42].veinsmobility 	stopTime 	450
scalar RSUExampleScenario.node[42].veinsmobility 	minSpeed 	0
scalar RSUExampleScenario.node[42].veinsmobility 	maxSpeed 	13.999976263605
scalar RSUExampleScenario.node[42].veinsmobility 	totalDistance 	1694.8244013747
scalar RSUExampleScenario.node[42].veinsmobility 	totalCO2Emission 	575.7666770666
scalar RSUExampleScenario.node[43].appl 	meanClusterNodes 	5.25
scalar RSUExampleScenario.node[43].appl 	meanClusterHeadUtility 	8.1553518838717
scalar RSUExampleScenario.node[43].appl 	NumberofCH 	0.10810810810811
scalar RSUExampleScenario.node[43].appl 	NumberofON 	0.48648648648649
scalar RSUExampleScenario.node[43].appl 	NumberofFN 	0.40540540540541
scalar RSUExampleScenario.node[43].veinsmobility 	startTime 	103.7
scalar RSUExampleScenario.node[43].veinsmobility 	totalTime 	346.3
scalar RSUExampleScenario.node[43].veinsmobility 	stopTime 	450
scalar RSUExampleScenario.node[43].veinsmobility 	minSpeed 	0
scalar RSUExampleScenario.node[43].veinsmobility 	maxSpeed 	13.999927606762
scalar RSUExampleScenario.node[43].veinsmobility 	totalDistance 	1662.3774711783
scalar RSUExampleScenario.node[43].veinsmobility 	totalCO2Emission 	570.04960264448
scalar RSUExampleScenario.node[44].appl 	meanClusterNodes 	2.5
scalar RSUExampleScenario.node[44].appl 	meanClusterHeadUtility 	9.1973341926415
scalar RSUExampleScenario.node[44].appl 	NumberofCH 	0.10810810810811
scalar RSUExampleScenario.node[44].appl 	NumberofON 	0.86486486486486
scalar RSUExampleScenario.node[44].appl 	NumberofFN 	0.027027027027027
scalar RSUExampleScenario.node[44].veinsmobility 	startTime 	106.1
scalar RSUExampleScenario.node[44].veinsmobility 	totalTime 	343.9
scalar RSUExampleScenario.node[44].veinsmobility 	stopTime 	450
scalar RSUExampleScenario.node[44].veinsmobility 	minSpeed 	0
scalar RSUExampleScenario.node[44].veinsmobility 	maxSpeed 	13.999842456991
scalar RSUExampleScenario.node[44].veinsmobility 	totalDistance 	1628.2425285219
scalar RSUExampleScenario.node[44].veinsmobility 	totalCO2Emission 	566.09491894185
scalar RSUExampleScenario.node[45].appl 	meanClusterNodes 	1
scalar RSUExampleScenario.node[45].appl 	meanClusterHeadUtility 	7.9095460129503
scalar RSUExampleScenario.node[45].appl 	NumberofCH 	0.10810810810811
scalar RSUExampleScenario.node[45].appl 	NumberofON 	0.86486486486486
scalar RSUExampleScenario.node[45].appl 	NumberofFN 	0.027027027027027
scalar RSUExampleScenario.node[45].veinsmobility 	startTime 	108.5
scalar RSUExampleScenario.node[45].veinsmobility 	totalTime 	341.5
scalar RSUExampleScenario.node[45].veinsmobility 	stopTime 	450
scalar RSUExampleScenario.node[45].veinsmobility 	minSpeed 	0
scalar RSUExampleScenario.node[45].veinsmobility 	maxSpeed 	13.999916574929
scalar RSUExampleScenario.node[45].veinsmobility 	totalDistance 	1595.2348698487
scalar RSUExampleScenario.node[45].veinsmobility 	totalCO2Emission 	557.61733919957
scalar RSUExampleScenario.node[46].appl 	meanClusterNodes 	3.3333333333333
scalar RSUExampleScenario.node[46].appl 	meanClusterHeadUtility 	5.9577234919945
scalar RSUExampleScenario.node[46].appl 	NumberofCH 	0.16216216216216
scalar RSUExampleScenario.node[46].appl 	NumberofON 	0.72972972972973
scalar RSUExampleScenario.node[46].appl 	NumberofFN 	0.10810810810811
scalar RSUExampleScenario.node[46].veinsmobility 	startTime 	110.9
scalar RSUExampleScenario.node[46].veinsmobility 	totalTime 	339.1
scalar RSUExampleScenario.node[46].veinsmobility 	stopTime 	450
scalar RSUExampleScenario.node[46].veinsmobility 	minSpeed 	0
scalar RSUExampleScenario.node[46].veinsmobility 	maxSpeed 	13.999791474326
scalar RSUExampleScenario.node[46].veinsmobility 	totalDistance 	1563.3197311347
scalar RSUExampleScenario.node[46].veinsmobility 	totalCO2Emission 	553.717160348
scalar RSUExampleScenario.node[47].appl 	meanClusterNodes 	6.5
scalar RSUExampleScenario.node[47].appl 	meanClusterHeadUtility 	5.6407178394995
scalar RSUExampleScenario.node[47].appl 	NumberofCH 	0.16216216216216
scalar RSUExampleScenario.node[47].appl 	NumberofON 	0.7027027027027
scalar RSUExampleScenario.node[47].appl 	NumberofFN 	0.13513513513514
scalar RSUExampleScenario.node[47].veinsmobility 	startTime 	113.3
scalar RSUExampleScenario.node[47].veinsmobility 	totalTime 	336.7
scalar RSUExampleScenario.node[47].veinsmobility 	stopTime 	450
scalar RSUExampleScenario.node[47].veinsmobility 	minSpeed 	0
scalar RSUExampleScenario.node[47].veinsmobility 	maxSpeed 	13.999977674456
scalar RSUExampleScenario.node[47].veinsmobility 	totalDistance 	1529.1053264284
scalar RSUExampleScenario.node[47].veinsmobility 	totalCO2Emission 	546.1334598601
scalar RSUExampleScenario.node[48].appl 	meanClusterNodes 	2.5
scalar RSUExampleScenario.node[48].appl 	meanClusterHeadUtility 	8.1068317329877
scalar RSUExampleScenario.node[48].appl 	NumberofCH 	0.10810810810811
scalar RSUExampleScenario.node[48].appl 	NumberofON 	0.72972972972973
scalar RSUExampleScenario.node[48].appl 	NumberofFN 	0.16216216216216
scalar RSUExampleScenario.node[48].veinsmobility 	startTime 	115.7
scalar RSUExampleScenario.node[48].veinsmobility 	totalTime 	334.3
scalar RSUExampleScenario.node[48].veinsmobility 	stopTime 	450
scalar RSUExampleScenario.node[48].veinsmobility 	minSpeed 	0
scalar RSUExampleScenario.node[48].veinsmobility 	maxSpeed 	13.999670416981
scalar RSUExampleScenario.node[48].veinsmobility 	totalDistance 	1494.4696090383
scalar RSUExampleScenario.node[48].veinsmobility 	totalCO2Emission 	542.76735574536
scalar RSUExampleScenario.node[49].appl 	meanClusterNodes 	6.75
scalar RSUExampleScenario.node[49].appl 	meanClusterHeadUtility 	8.7245992956133
scalar RSUExampleScenario.node[49].appl 	NumberofCH 	0.10810810810811
scalar RSUExampleScenario.node[49].appl 	NumberofON 	0.54054054054054
scalar RSUExampleScenario.node[49].appl 	NumberofFN 	0.35135135135135
scalar RSUExampleScenario.node[49].veinsmobility 	startTime 	118.1
scalar RSUExampleScenario.node[49].veinsmobility 	totalTime 	331.9
scalar RSUExampleScenario.node[49].veinsmobility 	stopTime 	450
scalar RSUExampleScenario.node[49].veinsmobility 	minSpeed 	0
scalar RSUExampleScenario.node[49].veinsmobility 	maxSpeed 	13.999994839006
scalar RSUExampleScenario.node[49].veinsmobility 	totalDistance 	1460.8201686362
scalar RSUExampleScenario.node[49].veinsmobility 	totalCO2Emission 	535.87980121339
scalar RSUExampleScenario.node[5].appl 	meanClusterNodes 	3.1666666666667
scalar RSUExampleScenario.node[5].appl 	meanClusterHeadUtility 	5.4401959549861
scalar RSUExampleScenario.node[5].appl 	NumberofCH 	0.16216216216216
scalar RSUExampleScenario.node[5].appl 	NumberofON 	0.56756756756757
scalar RSUExampleScenario.node[5].appl 	NumberofFN 	0.27027027027027
scalar RSUExampleScenario.node[5].veinsmobility 	startTime 	12.1
scalar RSUExampleScenario.node[5].veinsmobility 	totalTime 	437.9
scalar RSUExampleScenario.node[5].veinsmobility 	stopTime 	450
scalar RSUExampleScenario.node[5].veinsmobility 	minSpeed 	0
scalar RSUExampleScenario.node[5].veinsmobility 	maxSpeed 	13.999915071398
scalar RSUExampleScenario.node[5].veinsmobility 	totalDistance 	2914.7221159633
scalar RSUExampleScenario.node[5].veinsmobility 	totalCO2Emission 	785.62354337641
scalar RSUExampleScenario.node[50].appl 	meanClusterNodes 	2.3333333333333
scalar RSUExampleScenario.node[50].appl 	meanClusterHeadUtility 	5.9640114049618
scalar RSUExampleScenario.node[50].appl 	NumberofCH 	0.16216216216216
scalar RSUExampleScenario.node[50].appl 	NumberofON 	0.62162162162162
scalar RSUExampleScenario.node[50].appl 	NumberofFN 	0.21621621621622
scalar RSUExampleScenario.node[50].veinsmobility 	startTime 	120.6
scalar RSUExampleScenario.node[50].veinsmobility 	totalTime 	329.4
scalar RSUExampleScenario.node[50].veinsmobility 	stopTime 	450
scalar RSUExampleScenario.node[50].veinsmobility 	minSpeed 	0
scalar RSUExampleScenario.node[50].veinsmobility 	maxSpeed 	13.999911635739
scalar RSUExampleScenario.node[50].veinsmobility 	totalDistance 	1429.0975345307
scalar RSUExampleScenario.node[50].veinsmobility 	totalCO2Emission 	530.01235706355
scalar RSUExampleScenario.node[51].appl 	meanClusterNodes 	7
scalar RSUExampleScenario.node[51].appl 	meanClusterHeadUtility 	9.0836867849646
scalar RSUExampleScenario.node[51].appl 	NumberofCH 	0.10810810810811
scalar RSUExampleScenario.node[51].appl 	NumberofON 	0.54054054054054
scalar RSUExampleScenario.node[51].appl 	NumberofFN 	0.35135135135135
scalar RSUExampleScenario.node[51].veinsmobility 	startTime 	123
scalar RSUExampleScenario.node[51].veinsmobility 	totalTime 	327
scalar RSUExampleScenario.node[51].veinsmobility 	stopTime 	450
scalar RSUExampleScenario.node[51].veinsmobility 	minSpeed 	0
scalar RSUExampleScenario.node[51].veinsmobility 	maxSpeed 	13.999961511262
scalar RSUExampleScenario.node[51].veinsmobility 	totalDistance 	1394.936238862
scalar RSUExampleScenario.node[51].veinsmobility 	totalCO2Emission 	524.34787238048
scalar RSUExampleScenario.node[52].appl 	meanClusterNodes 	2.3333333333333
scalar RSUExampleScenario.node[52].appl 	meanClusterHeadUtility 	5.6768401145684
scalar RSUExampleScenario.node[52].appl 	NumberofCH 	0.16216216216216
scalar RSUExampleScenario.node[52].appl 	NumberofON 	0.59459459459459
scalar RSUExampleScenario.node[52].appl 	NumberofFN 	0.24324324324324
scalar RSUExampleScenario.node[52].veinsmobility 	startTime 	125.4
scalar RSUExampleScenario.node[52].veinsmobility 	totalTime 	324.6
scalar RSUExampleScenario.node[52].veinsmobility 	stopTime 	450
scalar RSUExampleScenario.node[52].veinsmobility 	minSpeed 	0
scalar RSUExampleScenario.node[52].veinsmobility 	maxSpeed 	13.999849299069
scalar RSUExampleScenario.node[52].veinsmobility 	totalDistance 	1361.9270005865
scalar RSUExampleScenario.node[52].veinsmobility 	totalCO2Emission 	518.31263702462
scalar RSUExampleScenario.node[53].appl 	meanClusterNodes 	4
scalar RSUExampleScenario.node[53].appl 	meanClusterHeadUtility 	7.8476679894995
scalar RSUExampleScenario.node[53].appl 	NumberofCH 	0.10810810810811
scalar RSUExampleScenario.node[53].appl 	NumberofON 	0.43243243243243
scalar RSUExampleScenario.node[53].appl 	NumberofFN 	0.45945945945946
scalar RSUExampleScenario.node[53].veinsmobility 	startTime 	127.8
scalar RSUExampleScenario.node[53].veinsmobility 	totalTime 	322.2
scalar RSUExampleScenario.node[53].veinsmobility 	stopTime 	450
scalar RSUExampleScenario.node[53].veinsmobility 	minSpeed 	0
scalar RSUExampleScenario.node[53].veinsmobility 	maxSpeed 	13.999967985614
scalar RSUExampleScenario.node[53].veinsmobility 	totalDistance 	1325.6968653872
scalar RSUExampleScenario.node[53].veinsmobility 	totalCO2Emission 	511.86065707275
scalar RSUExampleScenario.node[54].appl 	meanClusterNodes 	8
scalar RSUExampleScenario.node[54].appl 	meanClusterHeadUtility 	8.2759117168047
scalar RSUExampleScenario.node[54].appl 	NumberofCH 	0.10810810810811
scalar RSUExampleScenario.node[54].appl 	NumberofON 	0.56756756756757
scalar RSUExampleScenario.node[54].appl 	NumberofFN 	0.32432432432432
scalar RSUExampleScenario.node[54].veinsmobility 	startTime 	130.2
scalar RSUExampleScenario.node[54].veinsmobility 	totalTime 	319.8
scalar RSUExampleScenario.node[54].veinsmobility 	stopTime 	450
scalar RSUExampleScenario.node[54].veinsmobility 	minSpeed 	0
scalar RSUExampleScenario.node[54].veinsmobility 	maxSpeed 	13.99991482774
scalar RSUExampleScenario.node[54].veinsmobility 	totalDistance 	1293.1856851241
scalar RSUExampleScenario.node[54].veinsmobility 	totalCO2Emission 	508.2088431467
scalar RSUExampleScenario.node[55].appl 	meanClusterNodes 	3
scalar RSUExampleScenario.node[55].appl 	meanClusterHeadUtility 	7.8416497242906
scalar RSUExampleScenario.node[55].appl 	NumberofCH 	0.10810810810811
scalar RSUExampleScenario.node[55].appl 	NumberofON 	0.75675675675676
scalar RSUExampleScenario.node[55].appl 	NumberofFN 	0.13513513513514
scalar RSUExampleScenario.node[55].veinsmobility 	startTime 	132.6
scalar RSUExampleScenario.node[55].veinsmobility 	totalTime 	317.4
scalar RSUExampleScenario.node[55].veinsmobility 	stopTime 	450
scalar RSUExampleScenario.node[55].veinsmobility 	minSpeed 	0
scalar RSUExampleScenario.node[55].veinsmobility 	maxSpeed 	13.999750482789
scalar RSUExampleScenario.node[55].veinsmobility 	totalDistance 	1259.4343609696
scalar RSUExampleScenario.node[55].veinsmobility 	totalCO2Emission 	501.87123795451
scalar RSUExampleScenario.node[56].appl 	meanClusterNodes 	9.3333333333333
scalar RSUExampleScenario.node[56].appl 	meanClusterHeadUtility 	5.7130328776443
scalar RSUExampleScenario.node[56].appl 	NumberofCH 	0.16216216216216
scalar RSUExampleScenario.node[56].appl 	NumberofON 	0.2972972972973
scalar RSUExampleScenario.node[56].appl 	NumberofFN 	0.54054054054054
scalar RSUExampleScenario.node[56].veinsmobility 	startTime 	135
scalar RSUExampleScenario.node[56].veinsmobility 	totalTime 	315
scalar RSUExampleScenario.node[56].veinsmobility 	stopTime 	450
scalar RSUExampleScenario.node[56].veinsmobility 	minSpeed 	0
scalar RSUExampleScenario.node[56].veinsmobility 	maxSpeed 	13.999717756622
scalar RSUExampleScenario.node[56].veinsmobility 	totalDistance 	1226.718115334
scalar RSUExampleScenario.node[56].veinsmobility 	totalCO2Emission 	499.31959125114
scalar RSUExampleScenario.node[57].appl 	meanClusterNodes 	0.5
scalar RSUExampleScenario.node[57].appl 	meanClusterHeadUtility 	7.6794259937195
scalar RSUExampleScenario.node[57].appl 	NumberofCH 	0.10810810810811
scalar RSUExampleScenario.node[57].appl 	NumberofON 	0.45945945945946
scalar RSUExampleScenario.node[57].appl 	NumberofFN 	0.43243243243243
scalar RSUExampleScenario.node[57].veinsmobility 	startTime 	137.4
scalar RSUExampleScenario.node[57].veinsmobility 	totalTime 	312.6
scalar RSUExampleScenario.node[57].veinsmobility 	stopTime 	450
scalar RSUExampleScenario.node[57].veinsmobility 	minSpeed 	0
scalar RSUExampleScenario.node[57].veinsmobility 	maxSpeed 	13.999896405647
scalar RSUExampleScenario.node[57].veinsmobility 	totalDistance 	1192.7908406213
scalar RSUExampleScenario.node[57].veinsmobility 	totalCO2Emission 	490.79254268492
scalar RSUExampleScenario.node[58].appl 	meanClusterNodes 	7.5
scalar RSUExampleScenario.node[58].appl 	meanClusterHeadUtility 	8.3433334337751
scalar RSUExampleScenario.node[58].appl 	NumberofCH 	0.10810810810811
scalar RSUExampleScenario.node[58].appl 	NumberofON 	0.72972972972973
scalar RSUExampleScenario.node[58].appl 	NumberofFN 	0.16216216216216
scalar RSUExampleScenario.node[58].veinsmobility 	startTime 	139.8
scalar RSUExampleScenario.node[58].veinsmobility 	totalTime 	310.2
scalar RSUExampleScenario.node[58].veinsmobility 	stopTime 	450
scalar RSUExampleScenario.node[58].veinsmobility 	minSpeed 	0
scalar RSUExampleScenario.node[58].veinsmobility 	maxSpeed 	13.999869723874
scalar RSUExampleScenario.node[58].veinsmobility 	totalDistance 	1158.0562212453
scalar RSUExampleScenario.node[58].veinsmobility 	totalCO2Emission 	486.90549021357
scalar RSUExampleScenario.node[59].appl 	meanClusterNodes 	8.5
scalar RSUExampleScenario.node[59].appl 	meanClusterHeadUtility 	8.6028992401866
scalar RSUExampleScenario.node[59].appl 	NumberofCH 	0.10810810810811
scalar RSUExampleScenario.node[59].appl 	NumberofON 	0.45945945945946
scalar RSUExampleScenario.node[59].appl 	NumberofFN 	0.43243243243243
scalar RSUExampleScenario.node[59].veinsmobility 	startTime 	142.2
scalar RSUExampleScenario.node[59].veinsmobility 	totalTime 	307.8
scalar RSUExampleScenario.node[59].veinsmobility 	stopTime 	450
scalar RSUExampleScenario.node[59].veinsmobility 	minSpeed 	0
scalar RSUExampleScenario.node[59].veinsmobility 	maxSpeed 	13.999968985759
scalar RSUExampleScenario.node[59].veinsmobility 	totalDistance 	1125.1231467594
scalar RSUExampleScenario.node[59].veinsmobility 	totalCO2Emission 	479.03444849405
scalar RSUExampleScenario.node[6].appl 	meanClusterNodes 	2.6666666666667
scalar RSUExampleScenario.node[6].appl 	meanClusterHeadUtility 	6.1575242862447
scalar RSUExampleScenario.node[6].appl 	NumberofCH 	0.16216216216216
scalar RSUExampleScenario.node[6].appl 	NumberofON 	0.56756756756757
scalar RSUExampleScenario.node[6].appl 	NumberofFN 	0.27027027027027
scalar RSUExampleScenario.node[6].veinsmobility 	startTime 	14.5
scalar RSUExampleScenario.node[6].veinsmobility 	totalTime 	435.5
scalar RSUExampleScenario.node[6].veinsmobility 	stopTime 	450
scalar RSUExampleScenario.node[6].veinsmobility 	minSpeed 	0
scalar RSUExampleScenario.node[6].veinsmobility 	maxSpeed 	13.999839631869
scalar RSUExampleScenario.node[6].veinsmobility 	totalDistance 	2906.4399725517
scalar RSUExampleScenario.node[6].veinsmobility 	totalCO2Emission 	774.47907251927
scalar RSUExampleScenario.node[60].appl 	meanClusterNodes 	6.25
scalar RSUExampleScenario.node[60].appl 	meanClusterHeadUtility 	8.3439581536162
scalar RSUExampleScenario.node[60].appl 	NumberofCH 	0.10810810810811
scalar RSUExampleScenario.node[60].appl 	NumberofON 	0.62162162162162
scalar RSUExampleScenario.node[60].appl 	NumberofFN 	0.27027027027027
scalar RSUExampleScenario.node[60].veinsmobility 	startTime 	144.7
scalar RSUExampleScenario.node[60].veinsmobility 	totalTime 	305.3
scalar RSUExampleScenario.node[60].veinsmobility 	stopTime 	450
scalar RSUExampleScenario.node[60].veinsmobility 	minSpeed 	0
scalar RSUExampleScenario.node[60].veinsmobility 	maxSpeed 	13.999897558978
scalar RSUExampleScenario.node[60].veinsmobility 	totalDistance 	1091.785898259
scalar RSUExampleScenario.node[60].veinsmobility 	totalCO2Emission 	475.22526178848
scalar RSUExampleScenario.node[61].appl 	meanClusterNodes 	4
scalar RSUExampleScenario.node[61].appl 	meanClusterHeadUtility 	5.8494349956107
scalar RSUExampleScenario.node[61].appl 	NumberofCH 	0.16216216216216
scalar RSUExampleScenario.node[61].appl 	NumberofON 	0.67567567567568
scalar RSUExampleScenario.node[61].appl 	NumberofFN 	0.16216216216216
scalar RSUExampleScenario.node[61].veinsmobility 	startTime 	147.1
scalar RSUExampleScenario.node[61].veinsmobility 	totalTime 	302.9
scalar RSUExampleScenario.node[61].veinsmobility 	stopTime 	450
scalar RSUExampleScenario.node[61].veinsmobility 	minSpeed 	0
scalar RSUExampleScenario.node[61].veinsmobility 	maxSpeed 	13.999858134293
scalar RSUExampleScenario.node[61].veinsmobility 	totalDistance 	1058.9354409056
scalar RSUExampleScenario.node[61].veinsmobility 	totalCO2Emission 	469.94826367976
scalar RSUExampleScenario.node[62].appl 	meanClusterNodes 	4
scalar RSUExampleScenario.node[62].appl 	meanClusterHeadUtility 	6.7560632212124
scalar RSUExampleScenario.node[62].appl 	NumberofCH 	0.13513513513514
scalar RSUExampleScenario.node[62].appl 	NumberofON 	0.81081081081081
scalar RSUExampleScenario.node[62].appl 	NumberofFN 	0.054054054054054
scalar RSUExampleScenario.node[62].veinsmobility 	startTime 	149.5
scalar RSUExampleScenario.node[62].veinsmobility 	totalTime 	300.5
scalar RSUExampleScenario.node[62].veinsmobility 	stopTime 	450
scalar RSUExampleScenario.node[62].veinsmobility 	minSpeed 	0
scalar RSUExampleScenario.node[62].veinsmobility 	maxSpeed 	13.999994542683
scalar RSUExampleScenario.node[62].veinsmobility 	totalDistance 	1025.6400040571
scalar RSUExampleScenario.node[62].veinsmobility 	totalCO2Emission 	460.80870047355
scalar RSUExampleScenario.node[63].appl 	meanClusterNodes 	1.25
scalar RSUExampleScenario.node[63].appl 	meanClusterHeadUtility 	9.3773528935114
scalar RSUExampleScenario.node[63].appl 	NumberofCH 	0.10810810810811
scalar RSUExampleScenario.node[63].appl 	NumberofON 	0.51351351351351
scalar RSUExampleScenario.node[63].appl 	NumberofFN 	0.37837837837838
scalar RSUExampleScenario.node[63].veinsmobility 	startTime 	151.9
scalar RSUExampleScenario.node[63].veinsmobility 	totalTime 	298.1
scalar RSUExampleScenario.node[63].veinsmobility 	stopTime 	450
scalar RSUExampleScenario.node[63].veinsmobility 	minSpeed 	0
scalar RSUExampleScenario.node[63].veinsmobility 	maxSpeed 	13.999713878233
scalar RSUExampleScenario.node[63].veinsmobility 	totalDistance 	986.94962664611
scalar RSUExampleScenario.node[63].veinsmobility 	totalCO2Emission 	450.31680532912
scalar RSUExampleScenario.node[64].appl 	meanClusterNodes 	0.83333333333333
scalar RSUExampleScenario.node[64].appl 	meanClusterHeadUtility 	5.7197043535999
scalar RSUExampleScenario.node[64].appl 	NumberofCH 	0.16216216216216
scalar RSUExampleScenario.node[64].appl 	NumberofON 	0.78378378378378
scalar RSUExampleScenario.node[64].appl 	NumberofFN 	0.054054054054054
scalar RSUExampleScenario.node[64].veinsmobility 	startTime 	154.3
scalar RSUExampleScenario.node[64].veinsmobility 	totalTime 	295.7
scalar RSUExampleScenario.node[64].veinsmobility 	stopTime 	450
scalar RSUExampleScenario.node[64].veinsmobility 	minSpeed 	0
scalar RSUExampleScenario.node[64].veinsmobility 	maxSpeed 	13.999042502332
scalar RSUExampleScenario.node[64].veinsmobility 	totalDistance 	954.51810404815
scalar RSUExampleScenario.node[64].veinsmobility 	totalCO2Emission 	434.33609881619
scalar RSUExampleScenario.node[65].appl 	meanClusterNodes 	7
scalar RSUExampleScenario.node[65].appl 	meanClusterHeadUtility 	8.6118220308481
scalar RSUExampleScenario.node[65].appl 	NumberofCH 	0.10810810810811
scalar RSUExampleScenario.node[65].appl 	NumberofON 	0.48648648648649
scalar RSUExampleScenario.node[65].appl 	NumberofFN 	0.40540540540541
scalar RSUExampleScenario.node[65].veinsmobility 	startTime 	156.7
scalar RSUExampleScenario.node[65].veinsmobility 	totalTime 	293.3
scalar RSUExampleScenario.node[65].veinsmobility 	stopTime 	450
scalar RSUExampleScenario.node[65].veinsmobility 	minSpeed 	0
scalar RSUExampleScenario.node[65].veinsmobility 	maxSpeed 	13.999978866742
scalar RSUExampleScenario.node[65].veinsmobility 	totalDistance 	940.56434143321
scalar RSUExampleScenario.node[65].veinsmobility 	totalCO2Emission 	426.42844125865
scalar RSUExampleScenario.node[66].appl 	meanClusterNodes 	3
scalar RSUExampleScenario.node[66].appl 	meanClusterHeadUtility 	9.1246544841468
scalar RSUExampleScenario.node[66].appl 	NumberofCH 	0.10810810810811
scalar RSUExampleScenario.node[66].appl 	NumberofON 	0.48648648648649
scalar RSUExampleScenario.node[66].appl 	NumberofFN 	0.40540540540541
scalar RSUExampleScenario.node[66].veinsmobility 	startTime 	159.1
scalar RSUExampleScenario.node[66].veinsmobility 	totalTime 	290.9
scalar RSUExampleScenario.node[66].veinsmobility 	stopTime 	450
scalar RSUExampleScenario.node[66].veinsmobility 	minSpeed 	0
scalar RSUExampleScenario.node[66].veinsmobility 	maxSpeed 	13.999851757223
scalar RSUExampleScenario.node[66].veinsmobility 	totalDistance 	928.51309943096
scalar RSUExampleScenario.node[66].veinsmobility 	totalCO2Emission 	424.38810699245
scalar RSUExampleScenario.node[67].appl 	meanClusterNodes 	4
scalar RSUExampleScenario.node[67].appl 	meanClusterHeadUtility 	6.1520321370214
scalar RSUExampleScenario.node[67].appl 	NumberofCH 	0.16216216216216
scalar RSUExampleScenario.node[67].appl 	NumberofON 	0.81081081081081
scalar RSUExampleScenario.node[67].appl 	NumberofFN 	0.027027027027027
scalar RSUExampleScenario.node[67].veinsmobility 	startTime 	161.5
scalar RSUExampleScenario.node[67].veinsmobility 	totalTime 	288.5
scalar RSUExampleScenario.node[67].veinsmobility 	stopTime 	450
scalar RSUExampleScenario.node[67].veinsmobility 	minSpeed 	0
scalar RSUExampleScenario.node[67].veinsmobility 	maxSpeed 	13.999802239528
scalar RSUExampleScenario.node[67].veinsmobility 	totalDistance 	913.59220437862
scalar RSUExampleScenario.node[67].veinsmobility 	totalCO2Emission 	423.38577903749
scalar RSUExampleScenario.node[68].appl 	meanClusterNodes 	2.2
scalar RSUExampleScenario.node[68].appl 	meanClusterHeadUtility 	6.3387590534346
scalar RSUExampleScenario.node[68].appl 	NumberofCH 	0.13513513513514
scalar RSUExampleScenario.node[68].appl 	NumberofON 	0.81081081081081
scalar RSUExampleScenario.node[68].appl 	NumberofFN 	0.054054054054054
scalar RSUExampleScenario.node[68].veinsmobility 	startTime 	163.9
scalar RSUExampleScenario.node[68].veinsmobility 	totalTime 	286.1
scalar RSUExampleScenario.node[68].veinsmobility 	stopTime 	450
scalar RSUExampleScenario.node[68].veinsmobility 	minSpeed 	0
scalar RSUExampleScenario.node[68].veinsmobility 	maxSpeed 	13.999857867179
scalar RSUExampleScenario.node[68].veinsmobility 	totalDistance 	895.34229273864
scalar RSUExampleScenario.node[68].veinsmobility 	totalCO2Emission 	419.89511429624
scalar RSUExampleScenario.node[69].appl 	meanClusterNodes 	4.6
scalar RSUExampleScenario.node[69].appl 	meanClusterHeadUtility 	7.549630323907
scalar RSUExampleScenario.node[69].appl 	NumberofCH 	0.13513513513514
scalar RSUExampleScenario.node[69].appl 	NumberofON 	0.78378378378378
scalar RSUExampleScenario.node[69].appl 	NumberofFN 	0.081081081081081
scalar RSUExampleScenario.node[69].veinsmobility 	startTime 	166.3
scalar RSUExampleScenario.node[69].veinsmobility 	totalTime 	283.7
scalar RSUExampleScenario.node[69].veinsmobility 	stopTime 	450
scalar RSUExampleScenario.node[69].veinsmobility 	minSpeed 	0
scalar RSUExampleScenario.node[69].veinsmobility 	maxSpeed 	13.999653659444
scalar RSUExampleScenario.node[69].veinsmobility 	totalDistance 	861.69486557642
scalar RSUExampleScenario.node[69].veinsmobility 	totalCO2Emission 	416.40111613997
scalar RSUExampleScenario.node[7].appl 	meanClusterNodes 	3.75
scalar RSUExampleScenario.node[7].appl 	meanClusterHeadUtility 	8.707110306096
scalar RSUExampleScenario.node[7].appl 	NumberofCH 	0.10810810810811
scalar RSUExampleScenario.node[7].appl 	NumberofON 	0.43243243243243
scalar RSUExampleScenario.node[7].appl 	NumberofFN 	0.45945945945946
scalar RSUExampleScenario.node[7].veinsmobility 	startTime 	16.9
scalar RSUExampleScenario.node[7].veinsmobility 	totalTime 	433.1
scalar RSUExampleScenario.node[7].veinsmobility 	stopTime 	450
scalar RSUExampleScenario.node[7].veinsmobility 	minSpeed 	0
scalar RSUExampleScenario.node[7].veinsmobility 	maxSpeed 	13.999988700931
scalar RSUExampleScenario.node[7].veinsmobility 	totalDistance 	2885.7727059458
scalar RSUExampleScenario.node[7].veinsmobility 	totalCO2Emission 	775.51215701529
scalar RSUExampleScenario.node[70].appl 	meanClusterNodes 	9.25
scalar RSUExampleScenario.node[70].appl 	meanClusterHeadUtility 	8.748079651389
scalar RSUExampleScenario.node[70].appl 	NumberofCH 	0.10810810810811
scalar RSUExampleScenario.node[70].appl 	NumberofON 	0.59459459459459
scalar RSUExampleScenario.node[70].appl 	NumberofFN 	0.2972972972973
scalar RSUExampleScenario.node[70].veinsmobility 	startTime 	168.8
scalar RSUExampleScenario.node[70].veinsmobility 	totalTime 	281.2
scalar RSUExampleScenario.node[70].veinsmobility 	stopTime 	450
scalar RSUExampleScenario.node[70].veinsmobility 	minSpeed 	0
scalar RSUExampleScenario.node[70].veinsmobility 	maxSpeed 	13.999662937368
scalar RSUExampleScenario.node[70].veinsmobility 	totalDistance 	828.17584801307
scalar RSUExampleScenario.node[70].veinsmobility 	totalCO2Emission 	408.96112250952
scalar RSUExampleScenario.node[71].appl 	meanClusterNodes 	1.25
scalar RSUExampleScenario.node[71].appl 	meanClusterHeadUtility 	8.6678381613452
scalar RSUExampleScenario.node[71].appl 	NumberofCH 	0.10810810810811
scalar RSUExampleScenario.node[71].appl 	NumberofON 	0.83783783783784
scalar RSUExampleScenario.node[71].appl 	NumberofFN 	0.054054054054054
scalar RSUExampleScenario.node[71].veinsmobility 	startTime 	171.2
scalar RSUExampleScenario.node[71].veinsmobility 	totalTime 	278.8
scalar RSUExampleScenario.node[71].veinsmobility 	stopTime 	450
scalar RSUExampleScenario.node[71].veinsmobility 	minSpeed 	0
scalar RSUExampleScenario.node[71].veinsmobility 	maxSpeed 	13.999932238036
scalar RSUExampleScenario.node[71].veinsmobility 	totalDistance 	794.52242801853
scalar RSUExampleScenario.node[71].veinsmobility 	totalCO2Emission 	403.0749304802
scalar RSUExampleScenario.node[72].appl 	meanClusterNodes 	8.5
scalar RSUExampleScenario.node[72].appl 	meanClusterHeadUtility 	9.1073914547016
scalar RSUExampleScenario.node[72].appl 	NumberofCH 	0.10810810810811
scalar RSUExampleScenario.node[72].appl 	NumberofON 	0.7027027027027
scalar RSUExampleScenario.node[72].appl 	NumberofFN 	0.18918918918919
scalar RSUExampleScenario.node[72].veinsmobility 	startTime 	173.6
scalar RSUExampleScenario.node[72].veinsmobility 	totalTime 	276.4
scalar RSUExampleScenario.node[72].veinsmobility 	stopTime 	450
scalar RSUExampleScenario.node[72].veinsmobility 	minSpeed 	0
scalar RSUExampleScenario.node[72].veinsmobility 	maxSpeed 	13.999414930227
scalar RSUExampleScenario.node[72].veinsmobility 	totalDistance 	760.85449416674
scalar RSUExampleScenario.node[72].veinsmobility 	totalCO2Emission 	397.01664027068
scalar RSUExampleScenario.node[73].appl 	meanClusterNodes 	3.4
scalar RSUExampleScenario.node[73].appl 	meanClusterHeadUtility 	7.1508505012777
scalar RSUExampleScenario.node[73].appl 	NumberofCH 	0.13513513513514
scalar RSUExampleScenario.node[73].appl 	NumberofON 	0.72972972972973
scalar RSUExampleScenario.node[73].appl 	NumberofFN 	0.13513513513514
scalar RSUExampleScenario.node[73].veinsmobility 	startTime 	176
scalar RSUExampleScenario.node[73].veinsmobility 	totalTime 	274
scalar RSUExampleScenario.node[73].veinsmobility 	stopTime 	450
scalar RSUExampleScenario.node[73].veinsmobility 	minSpeed 	0
scalar RSUExampleScenario.node[73].veinsmobility 	maxSpeed 	13.999980079762
scalar RSUExampleScenario.node[73].veinsmobility 	totalDistance 	728.83455727107
scalar RSUExampleScenario.node[73].veinsmobility 	totalCO2Emission 	391.44142970757
scalar RSUExampleScenario.node[74].appl 	meanClusterNodes 	6
scalar RSUExampleScenario.node[74].appl 	meanClusterHeadUtility 	11.501366189644
scalar RSUExampleScenario.node[74].appl 	NumberofCH 	0.081081081081081
scalar RSUExampleScenario.node[74].appl 	NumberofON 	0.54054054054054
scalar RSUExampleScenario.node[74].appl 	NumberofFN 	0.37837837837838
scalar RSUExampleScenario.node[74].veinsmobility 	startTime 	178.4
scalar RSUExampleScenario.node[74].veinsmobility 	totalTime 	271.6
scalar RSUExampleScenario.node[74].veinsmobility 	stopTime 	450
scalar RSUExampleScenario.node[74].veinsmobility 	minSpeed 	0
scalar RSUExampleScenario.node[74].veinsmobility 	maxSpeed 	13.999836686763
scalar RSUExampleScenario.node[74].veinsmobility 	totalDistance 	694.3586458346
scalar RSUExampleScenario.node[74].veinsmobility 	totalCO2Emission 	383.6268516617
scalar RSUExampleScenario.node[75].appl 	meanClusterNodes 	0
scalar RSUExampleScenario.node[75].appl 	meanClusterHeadUtility 	0
scalar RSUExampleScenario.node[75].appl 	NumberofCH 	0.10810810810811
scalar RSUExampleScenario.node[75].appl 	NumberofON 	0.59459459459459
scalar RSUExampleScenario.node[75].appl 	NumberofFN 	0.2972972972973
scalar RSUExampleScenario.node[75].veinsmobility 	startTime 	180.8
scalar RSUExampleScenario.node[75].veinsmobility 	totalTime 	269.2
scalar RSUExampleScenario.node[75].veinsmobility 	stopTime 	450
scalar RSUExampleScenario.node[75].veinsmobility 	minSpeed 	0
scalar RSUExampleScenario.node[75].veinsmobility 	maxSpeed 	13.9997951083
scalar RSUExampleScenario.node[75].veinsmobility 	totalDistance 	659.81842539017
scalar RSUExampleScenario.node[75].veinsmobility 	totalCO2Emission 	379.26320661165
scalar RSUExampleScenario.node[76].appl 	meanClusterNodes 	5.6666666666667
scalar RSUExampleScenario.node[76].appl 	meanClusterHeadUtility 	5.4755854019966
scalar RSUExampleScenario.node[76].appl 	NumberofCH 	0.16216216216216
scalar RSUExampleScenario.node[76].appl 	NumberofON 	0.56756756756757
scalar RSUExampleScenario.node[76].appl 	NumberofFN 	0.27027027027027
scalar RSUExampleScenario.node[76].veinsmobility 	startTime 	183.2
scalar RSUExampleScenario.node[76].veinsmobility 	totalTime 	266.8
scalar RSUExampleScenario.node[76].veinsmobility 	stopTime 	450
scalar RSUExampleScenario.node[76].veinsmobility 	minSpeed 	0
scalar RSUExampleScenario.node[76].veinsmobility 	maxSpeed 	13.99995863759
scalar RSUExampleScenario.node[76].veinsmobility 	totalDistance 	626.05064865075
scalar RSUExampleScenario.node[76].veinsmobility 	totalCO2Emission 	374.46562547507
scalar RSUExampleScenario.node[77].appl 	meanClusterNodes 	4.25
scalar RSUExampleScenario.node[77].appl 	meanClusterHeadUtility 	8.9344123950946
scalar RSUExampleScenario.node[77].appl 	NumberofCH 	0.10810810810811
scalar RSUExampleScenario.node[77].appl 	NumberofON 	0.51351351351351
scalar RSUExampleScenario.node[77].appl 	NumberofFN 	0.37837837837838
scalar RSUExampleScenario.node[77].veinsmobility 	startTime 	185.6
scalar RSUExampleScenario.node[77].veinsmobility 	totalTime 	264.4
scalar RSUExampleScenario.node[77].veinsmobility 	stopTime 	450
scalar RSUExampleScenario.node[77].veinsmobility 	minSpeed 	0
scalar RSUExampleScenario.node[77].veinsmobility 	maxSpeed 	13.999962406922
scalar RSUExampleScenario.node[77].veinsmobility 	totalDistance 	591.2191812812
scalar RSUExampleScenario.node[77].veinsmobility 	totalCO2Emission 	367.20805465467
scalar RSUExampleScenario.node[78].appl 	meanClusterNodes 	3.1666666666667
scalar RSUExampleScenario.node[78].appl 	meanClusterHeadUtility 	5.4924449969373
scalar RSUExampleScenario.node[78].appl 	NumberofCH 	0.16216216216216
scalar RSUExampleScenario.node[78].appl 	NumberofON 	0.67567567567568
scalar RSUExampleScenario.node[78].appl 	NumberofFN 	0.16216216216216
scalar RSUExampleScenario.node[78].veinsmobility 	startTime 	188
scalar RSUExampleScenario.node[78].veinsmobility 	totalTime 	262
scalar RSUExampleScenario.node[78].veinsmobility 	stopTime 	450
scalar RSUExampleScenario.node[78].veinsmobility 	minSpeed 	0
scalar RSUExampleScenario.node[78].veinsmobility 	maxSpeed 	13.999050586547
scalar RSUExampleScenario.node[78].veinsmobility 	totalDistance 	556.89848421242
scalar RSUExampleScenario.node[78].veinsmobility 	totalCO2Emission 	362.17305387768
scalar RSUExampleScenario.node[79].appl 	meanClusterNodes 	2.5
scalar RSUExampleScenario.node[79].appl 	meanClusterHeadUtility 	8.1617739019767
scalar RSUExampleScenario.node[79].appl 	NumberofCH 	0.10810810810811
scalar RSUExampleScenario.node[79].appl 	NumberofON 	0.51351351351351
scalar RSUExampleScenario.node[79].appl 	NumberofFN 	0.37837837837838
scalar RSUExampleScenario.node[79].veinsmobility 	startTime 	190.4
scalar RSUExampleScenario.node[79].veinsmobility 	totalTime 	259.6
scalar RSUExampleScenario.node[79].veinsmobility 	stopTime 	450
scalar RSUExampleScenario.node[79].veinsmobility 	minSpeed 	0
scalar RSUExampleScenario.node[79].veinsmobility 	maxSpeed 	13.999768818861
scalar RSUExampleScenario.node[79].veinsmobility 	totalDistance 	522.74128009277
scalar RSUExampleScenario.node[79].veinsmobility 	totalCO2Emission 	357.02978076044
scalar RSUExampleScenario.node[8].appl 	meanClusterNodes 	3.5
scalar RSUExampleScenario.node[8].appl 	meanClusterHeadUtility 	9.1312691348706
scalar RSUExampleScenario.node[8].appl 	NumberofCH 	0.10810810810811
scalar RSUExampleScenario.node[8].appl 	NumberofON 	0.51351351351351
scalar RSUExampleScenario.node[8].appl 	NumberofFN 	0.37837837837838
scalar RSUExampleScenario.node[8].veinsmobility 	startTime 	19.3
scalar RSUExampleScenario.node[8].veinsmobility 	totalTime 	430.7
scalar RSUExampleScenario.node[8].veinsmobility 	stopTime 	450
scalar RSUExampleScenario.node[8].veinsmobility 	minSpeed 	0
scalar RSUExampleScenario.node[8].veinsmobility 	maxSpeed 	13.999876208275
scalar RSUExampleScenario.node[8].veinsmobility 	totalDistance 	2864.2433589153
scalar RSUExampleScenario.node[8].veinsmobility 	totalCO2Emission 	772.20443820078
scalar RSUExampleScenario.node[80].appl 	meanClusterNodes 	3.75
scalar RSUExampleScenario.node[80].appl 	meanClusterHeadUtility 	9.0799810374248
scalar RSUExampleScenario.node[80].appl 	NumberofCH 	0.10810810810811
scalar RSUExampleScenario.node[80].appl 	NumberofON 	0.62162162162162
scalar RSUExampleScenario.node[80].appl 	NumberofFN 	0.27027027027027
scalar RSUExampleScenario.node[80].veinsmobility 	startTime 	192.9
scalar RSUExampleScenario.node[80].veinsmobility 	totalTime 	257.1
scalar RSUExampleScenario.node[80].veinsmobility 	stopTime 	450
scalar RSUExampleScenario.node[80].veinsmobility 	minSpeed 	0
scalar RSUExampleScenario.node[80].veinsmobility 	maxSpeed 	13.999681244353
scalar RSUExampleScenario.node[80].veinsmobility 	totalDistance 	489.05863554332
scalar RSUExampleScenario.node[80].veinsmobility 	totalCO2Emission 	351.56127945121
scalar RSUExampleScenario.node[81].appl 	meanClusterNodes 	2
scalar RSUExampleScenario.node[81].appl 	meanClusterHeadUtility 	8.3901740991279
scalar RSUExampleScenario.node[81].appl 	NumberofCH 	0.10810810810811
scalar RSUExampleScenario.node[81].appl 	NumberofON 	0.62162162162162
scalar RSUExampleScenario.node[81].appl 	NumberofFN 	0.27027027027027
scalar RSUExampleScenario.node[81].veinsmobility 	startTime 	195.3
scalar RSUExampleScenario.node[81].veinsmobility 	totalTime 	254.7
scalar RSUExampleScenario.node[81].veinsmobility 	stopTime 	450
scalar RSUExampleScenario.node[81].veinsmobility 	minSpeed 	0
scalar RSUExampleScenario.node[81].veinsmobility 	maxSpeed 	13.999647891426
scalar RSUExampleScenario.node[81].veinsmobility 	totalDistance 	455.08481267443
scalar RSUExampleScenario.node[81].veinsmobility 	totalCO2Emission 	344.46700541702
scalar RSUExampleScenario.node[82].appl 	meanClusterNodes 	4.3333333333333
scalar RSUExampleScenario.node[82].appl 	meanClusterHeadUtility 	6.397054164534
scalar RSUExampleScenario.node[82].appl 	NumberofCH 	0.16216216216216
scalar RSUExampleScenario.node[82].appl 	NumberofON 	0.67567567567568
scalar RSUExampleScenario.node[82].appl 	NumberofFN 	0.16216216216216
scalar RSUExampleScenario.node[82].veinsmobility 	startTime 	197.7
scalar RSUExampleScenario.node[82].veinsmobility 	totalTime 	252.3
scalar RSUExampleScenario.node[82].veinsmobility 	stopTime 	450
scalar RSUExampleScenario.node[82].veinsmobility 	minSpeed 	0
scalar RSUExampleScenario.node[82].veinsmobility 	maxSpeed 	13.999814318058
scalar RSUExampleScenario.node[82].veinsmobility 	totalDistance 	422.63968499339
scalar RSUExampleScenario.node[82].veinsmobility 	totalCO2Emission 	339.82246655435
scalar RSUExampleScenario.node[83].appl 	meanClusterNodes 	4.4
scalar RSUExampleScenario.node[83].appl 	meanClusterHeadUtility 	7.2141873182216
scalar RSUExampleScenario.node[83].appl 	NumberofCH 	0.13513513513514
scalar RSUExampleScenario.node[83].appl 	NumberofON 	0.72972972972973
scalar RSUExampleScenario.node[83].appl 	NumberofFN 	0.13513513513514
scalar RSUExampleScenario.node[83].veinsmobility 	startTime 	200.1
scalar RSUExampleScenario.node[83].veinsmobility 	totalTime 	249.9
scalar RSUExampleScenario.node[83].veinsmobility 	stopTime 	450
scalar RSUExampleScenario.node[83].veinsmobility 	minSpeed 	0
scalar RSUExampleScenario.node[83].veinsmobility 	maxSpeed 	13.999753811511
scalar RSUExampleScenario.node[83].veinsmobility 	totalDistance 	388.08679671389
scalar RSUExampleScenario.node[83].veinsmobility 	totalCO2Emission 	333.8280272965
scalar RSUExampleScenario.node[84].appl 	meanClusterNodes 	4
scalar RSUExampleScenario.node[84].appl 	meanClusterHeadUtility 	9.220091465829
scalar RSUExampleScenario.node[84].appl 	NumberofCH 	0.10810810810811
scalar RSUExampleScenario.node[84].appl 	NumberofON 	0.72972972972973
scalar RSUExampleScenario.node[84].appl 	NumberofFN 	0.16216216216216
scalar RSUExampleScenario.node[84].veinsmobility 	startTime 	202.5
scalar RSUExampleScenario.node[84].veinsmobility 	totalTime 	247.5
scalar RSUExampleScenario.node[84].veinsmobility 	stopTime 	450
scalar RSUExampleScenario.node[84].veinsmobility 	minSpeed 	0
scalar RSUExampleScenario.node[84].veinsmobility 	maxSpeed 	13.999955030554
scalar RSUExampleScenario.node[84].veinsmobility 	totalDistance 	354.26426093248
scalar RSUExampleScenario.node[84].veinsmobility 	totalCO2Emission 	328.45127013518
scalar RSUExampleScenario.node[85].appl 	meanClusterNodes 	5
scalar RSUExampleScenario.node[85].appl 	meanClusterHeadUtility 	9.0919179487147
scalar RSUExampleScenario.node[85].appl 	NumberofCH 	0.10810810810811
scalar RSUExampleScenario.node[85].appl 	NumberofON 	0.78378378378378
scalar RSUExampleScenario.node[85].appl 	NumberofFN 	0.10810810810811
scalar RSUExampleScenario.node[85].veinsmobility 	startTime 	204.9
scalar RSUExampleScenario.node[85].veinsmobility 	totalTime 	245.1
scalar RSUExampleScenario.node[85].veinsmobility 	stopTime 	450
scalar RSUExampleScenario.node[85].veinsmobility 	minSpeed 	0
scalar RSUExampleScenario.node[85].veinsmobility 	maxSpeed 	13.999685769235
scalar RSUExampleScenario.node[85].veinsmobility 	totalDistance 	321.36023932128
scalar RSUExampleScenario.node[85].veinsmobility 	totalCO2Emission 	323.43229520231
scalar RSUExampleScenario.node[86].appl 	meanClusterNodes 	4
scalar RSUExampleScenario.node[86].appl 	meanClusterHeadUtility 	9.5772125131654
scalar RSUExampleScenario.node[86].appl 	NumberofCH 	0.10810810810811
scalar RSUExampleScenario.node[86].appl 	NumberofON 	0.59459459459459
scalar RSUExampleScenario.node[86].appl 	NumberofFN 	0.2972972972973
scalar RSUExampleScenario.node[86].veinsmobility 	startTime 	207.3
scalar RSUExampleScenario.node[86].veinsmobility 	totalTime 	242.7
scalar RSUExampleScenario.node[86].veinsmobility 	stopTime 	450
scalar RSUExampleScenario.node[86].veinsmobility 	minSpeed 	0
scalar RSUExampleScenario.node[86].veinsmobility 	maxSpeed 	13.850068403063
scalar RSUExampleScenario.node[86].veinsmobility 	totalDistance 	286.86296952582
scalar RSUExampleScenario.node[86].veinsmobility 	totalCO2Emission 	316.1375643693
scalar RSUExampleScenario.node[87].appl 	meanClusterNodes 	0.75
scalar RSUExampleScenario.node[87].appl 	meanClusterHeadUtility 	8.6556661168908
scalar RSUExampleScenario.node[87].appl 	NumberofCH 	0.10810810810811
scalar RSUExampleScenario.node[87].appl 	NumberofON 	0.83783783783784
scalar RSUExampleScenario.node[87].appl 	NumberofFN 	0.054054054054054
scalar RSUExampleScenario.node[87].veinsmobility 	startTime 	209.7
scalar RSUExampleScenario.node[87].veinsmobility 	totalTime 	240.3
scalar RSUExampleScenario.node[87].veinsmobility 	stopTime 	450
scalar RSUExampleScenario.node[87].veinsmobility 	minSpeed 	0
scalar RSUExampleScenario.node[87].veinsmobility 	maxSpeed 	13.847950759284
scalar RSUExampleScenario.node[87].veinsmobility 	totalDistance 	247.19942015781
scalar RSUExampleScenario.node[87].veinsmobility 	totalCO2Emission 	298.26873361355
scalar RSUExampleScenario.node[88].appl 	meanClusterNodes 	4.75
scalar RSUExampleScenario.node[88].appl 	meanClusterHeadUtility 	9.2574200174055
scalar RSUExampleScenario.node[88].appl 	NumberofCH 	0.10810810810811
scalar RSUExampleScenario.node[88].appl 	NumberofON 	0.64864864864865
scalar RSUExampleScenario.node[88].appl 	NumberofFN 	0.24324324324324
scalar RSUExampleScenario.node[88].veinsmobility 	startTime 	212.1
scalar RSUExampleScenario.node[88].veinsmobility 	totalTime 	237.9
scalar RSUExampleScenario.node[88].veinsmobility 	stopTime 	450
scalar RSUExampleScenario.node[88].veinsmobility 	minSpeed 	0
scalar RSUExampleScenario.node[88].veinsmobility 	maxSpeed 	13.80817379855
scalar RSUExampleScenario.node[88].veinsmobility 	totalDistance 	225.57002844123
scalar RSUExampleScenario.node[88].veinsmobility 	totalCO2Emission 	287.04039737559
scalar RSUExampleScenario.node[89].appl 	meanClusterNodes 	4
scalar RSUExampleScenario.node[89].appl 	meanClusterHeadUtility 	6.0160472906574
scalar RSUExampleScenario.node[89].appl 	NumberofCH 	0.16216216216216
scalar RSUExampleScenario.node[89].appl 	NumberofON 	0.75675675675676
scalar RSUExampleScenario.node[89].appl 	NumberofFN 	0.081081081081081
scalar RSUExampleScenario.node[89].veinsmobility 	startTime 	214.5
scalar RSUExampleScenario.node[89].veinsmobility 	totalTime 	235.5
scalar RSUExampleScenario.node[89].veinsmobility 	stopTime 	450
scalar RSUExampleScenario.node[89].veinsmobility 	minSpeed 	0
scalar RSUExampleScenario.node[89].veinsmobility 	maxSpeed 	13.858179104228
scalar RSUExampleScenario.node[89].veinsmobility 	totalDistance 	214.89628287036
scalar RSUExampleScenario.node[89].veinsmobility 	totalCO2Emission 	283.10723617206
scalar RSUExampleScenario.node[9].appl 	meanClusterNodes 	2.25
scalar RSUExampleScenario.node[9].appl 	meanClusterHeadUtility 	9.6374815562182
scalar RSUExampleScenario.node[9].appl 	NumberofCH 	0.10810810810811
scalar RSUExampleScenario.node[9].appl 	NumberofON 	0.48648648648649
scalar RSUExampleScenario.node[9].appl 	NumberofFN 	0.40540540540541
scalar RSUExampleScenario.node[9].veinsmobility 	startTime 	21.7
scalar RSUExampleScenario.node[9].veinsmobility 	totalTime 	428.3
scalar RSUExampleScenario.node[9].veinsmobility 	stopTime 	450
scalar RSUExampleScenario.node[9].veinsmobility 	minSpeed 	0
scalar RSUExampleScenario.node[9].veinsmobility 	maxSpeed 	13.999964646813
scalar RSUExampleScenario.node[9].veinsmobility 	totalDistance 	2825.1236664497
scalar RSUExampleScenario.node[9].veinsmobility 	totalCO2Emission 	764.38395466186
scalar RSUExampleScenario.node[90].appl 	meanClusterNodes 	4.5
scalar RSUExampleScenario.node[90].appl 	meanClusterHeadUtility 	8.4170267935615
scalar RSUExampleScenario.node[90].appl 	NumberofCH 	0.10810810810811
scalar RSUExampleScenario.node[90].appl 	NumberofON 	0.72972972972973
scalar RSUExampleScenario.node[90].appl 	NumberofFN 	0.16216216216216
scalar RSUExampleScenario.node[90].veinsmobility 	startTime 	217
scalar RSUExampleScenario.node[90].veinsmobility 	totalTime 	233
scalar RSUExampleScenario.node[90].veinsmobility 	stopTime 	450
scalar RSUExampleScenario.node[90].veinsmobility 	minSpeed 	0
scalar RSUExampleScenario.node[90].veinsmobility 	maxSpeed 	13.889188908024
scalar RSUExampleScenario.node[90].veinsmobility 	totalDistance 	201.63919058486
scalar RSUExampleScenario.node[90].veinsmobility 	totalCO2Emission 	280.10808278737
scalar RSUExampleScenario.node[91].appl 	meanClusterNodes 	7.4
scalar RSUExampleScenario.node[91].appl 	meanClusterHeadUtility 	7.910845393828
scalar RSUExampleScenario.node[91].appl 	NumberofCH 	0.13513513513514
scalar RSUExampleScenario.node[91].appl 	NumberofON 	0.56756756756757
scalar RSUExampleScenario.node[91].appl 	NumberofFN 	0.2972972972973
scalar RSUExampleScenario.node[91].veinsmobility 	startTime 	219.4
scalar RSUExampleScenario.node[91].veinsmobility 	totalTime 	230.6
scalar RSUExampleScenario.node[91].veinsmobility 	stopTime 	450
scalar RSUExampleScenario.node[91].veinsmobility 	minSpeed 	0
scalar RSUExampleScenario.node[91].veinsmobility 	maxSpeed 	13.839730714694
scalar RSUExampleScenario.node[91].veinsmobility 	totalDistance 	184.78264497868
scalar RSUExampleScenario.node[91].veinsmobility 	totalCO2Emission 	277.07067052729
scalar RSUExampleScenario.node[92].appl 	meanClusterNodes 	1.5
scalar RSUExampleScenario.node[92].appl 	meanClusterHeadUtility 	6.4588630046597
scalar RSUExampleScenario.node[92].appl 	NumberofCH 	0.16216216216216
scalar RSUExampleScenario.node[92].appl 	NumberofON 	0.7027027027027
scalar RSUExampleScenario.node[92].appl 	NumberofFN 	0.13513513513514
scalar RSUExampleScenario.node[92].veinsmobility 	startTime 	221.8
scalar RSUExampleScenario.node[92].veinsmobility 	totalTime 	228.2
scalar RSUExampleScenario.node[92].veinsmobility 	stopTime 	450
scalar RSUExampleScenario.node[92].veinsmobility 	minSpeed 	0
scalar RSUExampleScenario.node[92].veinsmobility 	maxSpeed 	13.781830073865
scalar RSUExampleScenario.node[92].veinsmobility 	totalDistance 	151.24979649158
scalar RSUExampleScenario.node[92].veinsmobility 	totalCO2Emission 	264.2712443064
scalar RSUExampleScenario.node[93].appl 	meanClusterNodes 	5
scalar RSUExampleScenario.node[93].appl 	meanClusterHeadUtility 	19.052672789638
scalar RSUExampleScenario.node[93].appl 	NumberofCH 	0.054054054054054
scalar RSUExampleScenario.node[93].appl 	NumberofON 	0.35135135135135
scalar RSUExampleScenario.node[93].appl 	NumberofFN 	0.59459459459459
scalar RSUExampleScenario.node[93].veinsmobility 	startTime 	224.2
scalar RSUExampleScenario.node[93].veinsmobility 	totalTime 	225.8
scalar RSUExampleScenario.node[93].veinsmobility 	stopTime 	450
scalar RSUExampleScenario.node[93].veinsmobility 	minSpeed 	0
scalar RSUExampleScenario.node[93].veinsmobility 	maxSpeed 	13.803209373936
scalar RSUExampleScenario.node[93].veinsmobility 	totalDistance 	123.59139067739
scalar RSUExampleScenario.node[93].veinsmobility 	totalCO2Emission 	251.70226765886
scalar RSUExampleScenario.node[94].appl 	meanClusterNodes 	6.75
scalar RSUExampleScenario.node[94].appl 	meanClusterHeadUtility 	9.3044003921252
scalar RSUExampleScenario.node[94].appl 	NumberofCH 	0.10810810810811
scalar RSUExampleScenario.node[94].appl 	NumberofON 	0.37837837837838
scalar RSUExampleScenario.node[94].appl 	NumberofFN 	0.51351351351351
scalar RSUExampleScenario.node[94].veinsmobility 	startTime 	226.6
scalar RSUExampleScenario.node[94].veinsmobility 	totalTime 	223.4
scalar RSUExampleScenario.node[94].veinsmobility 	stopTime 	450
scalar RSUExampleScenario.node[94].veinsmobility 	minSpeed 	0
scalar RSUExampleScenario.node[94].veinsmobility 	maxSpeed 	13.785134824216
scalar RSUExampleScenario.node[94].veinsmobility 	totalDistance 	112.18784782376
scalar RSUExampleScenario.node[94].veinsmobility 	totalCO2Emission 	245.77557212773
scalar RSUExampleScenario.node[95].appl 	meanClusterNodes 	7.1666666666667
scalar RSUExampleScenario.node[95].appl 	meanClusterHeadUtility 	6.2007877605053
scalar RSUExampleScenario.node[95].appl 	NumberofCH 	0.16216216216216
scalar RSUExampleScenario.node[95].appl 	NumberofON 	0.35135135135135
scalar RSUExampleScenario.node[95].appl 	NumberofFN 	0.48648648648649
scalar RSUExampleScenario.node[95].veinsmobility 	startTime 	229
scalar RSUExampleScenario.node[95].veinsmobility 	totalTime 	221
scalar RSUExampleScenario.node[95].veinsmobility 	stopTime 	450
scalar RSUExampleScenario.node[95].veinsmobility 	minSpeed 	0
scalar RSUExampleScenario.node[95].veinsmobility 	maxSpeed 	13.860427832019
scalar RSUExampleScenario.node[95].veinsmobility 	totalDistance 	99.18216374849
scalar RSUExampleScenario.node[95].veinsmobility 	totalCO2Emission 	242.53354317245
scalar RSUExampleScenario.node[96].appl 	meanClusterNodes 	2
scalar RSUExampleScenario.node[96].appl 	meanClusterHeadUtility 	8.4754197389112
scalar RSUExampleScenario.node[96].appl 	NumberofCH 	0.10810810810811
scalar RSUExampleScenario.node[96].appl 	NumberofON 	0.64864864864865
scalar RSUExampleScenario.node[96].appl 	NumberofFN 	0.24324324324324
scalar RSUExampleScenario.node[96].veinsmobility 	startTime 	231.4
scalar RSUExampleScenario.node[96].veinsmobility 	totalTime 	218.6
scalar RSUExampleScenario.node[96].veinsmobility 	stopTime 	450
scalar RSUExampleScenario.node[96].veinsmobility 	minSpeed 	0
scalar RSUExampleScenario.node[96].veinsmobility 	maxSpeed 	13.86263221502
scalar RSUExampleScenario.node[96].veinsmobility 	totalDistance 	83.545696461636
scalar RSUExampleScenario.node[96].veinsmobility 	totalCO2Emission 	239.88277233759
scalar RSUExampleScenario.node[97].appl 	meanClusterNodes 	4.1666666666667
scalar RSUExampleScenario.node[97].appl 	meanClusterHeadUtility 	5.6459320157801
scalar RSUExampleScenario.node[97].appl 	NumberofCH 	0.16216216216216
scalar RSUExampleScenario.node[97].appl 	NumberofON 	0.62162162162162
scalar RSUExampleScenario.node[97].appl 	NumberofFN 	0.21621621621622
scalar RSUExampleScenario.node[97].veinsmobility 	startTime 	233.8
scalar RSUExampleScenario.node[97].veinsmobility 	totalTime 	216.2
scalar RSUExampleScenario.node[97].veinsmobility 	stopTime 	450
scalar RSUExampleScenario.node[97].veinsmobility 	minSpeed 	0
scalar RSUExampleScenario.node[97].veinsmobility 	maxSpeed 	12.458485615112
scalar RSUExampleScenario.node[97].veinsmobility 	totalDistance 	57.225897700119
scalar RSUExampleScenario.node[97].veinsmobility 	totalCO2Emission 	232.36191643311
scalar RSUExampleScenario.node[98].appl 	meanClusterNodes 	2.6666666666667
scalar RSUExampleScenario.node[98].appl 	meanClusterHeadUtility 	5.2096792789987
scalar RSUExampleScenario.node[98].appl 	NumberofCH 	0.16216216216216
scalar RSUExampleScenario.node[98].appl 	NumberofON 	0.48648648648649
scalar RSUExampleScenario.node[98].appl 	NumberofFN 	0.35135135135135
scalar RSUExampleScenario.node[98].veinsmobility 	startTime 	236.2
scalar RSUExampleScenario.node[98].veinsmobility 	totalTime 	213.8
scalar RSUExampleScenario.node[98].veinsmobility 	stopTime 	450
scalar RSUExampleScenario.node[98].veinsmobility 	minSpeed 	0
scalar RSUExampleScenario.node[98].veinsmobility 	maxSpeed 	7.6998976731868
scalar RSUExampleScenario.node[98].veinsmobility 	totalDistance 	21.747336764659
scalar RSUExampleScenario.node[98].veinsmobility 	totalCO2Emission 	216.55324482222
scalar RSUExampleScenario.node[99].appl 	meanClusterNodes 	1
scalar RSUExampleScenario.node[99].appl 	meanClusterHeadUtility 	9.4378920587985
scalar RSUExampleScenario.node[99].appl 	NumberofCH 	0.10810810810811
scalar RSUExampleScenario.node[99].appl 	NumberofON 	0.54054054054054
scalar RSUExampleScenario.node[99].appl 	NumberofFN 	0.35135135135135
scalar RSUExampleScenario.node[99].veinsmobility 	startTime 	238.6
scalar RSUExampleScenario.node[99].veinsmobility 	totalTime 	211.4
scalar RSUExampleScenario.node[99].veinsmobility 	stopTime 	450
scalar RSUExampleScenario.node[99].veinsmobility 	minSpeed 	0
scalar RSUExampleScenario.node[99].veinsmobility 	maxSpeed 	3.1964099064582
scalar RSUExampleScenario.node[99].veinsmobility 	totalDistance 	3.4274227819596
scalar RSUExampleScenario.node[99].veinsmobility 	totalCO2Emission 	207.196323737
