version 2
run statistic-294-20150305-23:44:46-9848
attr c 11
attr configname statistic
attr datetime 20150305-23:44:46
attr experiment statistic
attr inifile omnetpp.ini
attr iterationvars "$p=1/10, $c=11"
attr iterationvars2 "$p=1/10, $c=11, $repetition=94"
attr measurement "$p=1/10, $c=11"
attr network RSUExampleScenario
attr p 1/10
attr processid 9848
attr repetition 94
attr replication #94
attr resultdir results
attr runnumber 294
attr seedset 294

scalar . 	c 	11
scalar RSUExampleScenario.rsu[0].appl 	NumberofCH 	5
scalar RSUExampleScenario.rsu[0].appl 	NumberofON 	55
scalar RSUExampleScenario.rsu[0].appl 	NumberofFN 	40
scalar RSUExampleScenario.rsu[0].appl 	meanClusterNodes 	11
scalar RSUExampleScenario.rsu[0].appl 	varClusterNodes 	0
scalar RSUExampleScenario.rsu[0].appl 	GSScycles 	7
