version 2
run statisticRVV-56-20150325-02:11:35-5248
attr c 11
attr configname statisticRVV
attr datetime 20150325-02:11:35
attr experiment statisticRVV
attr inifile omnetpp.ini
attr iterationvars "$sc=\"erlangen-low.launchd.xml\", $p=1/10, $c=11"
attr iterationvars2 "$sc=\"erlangen-low.launchd.xml\", $p=1/10, $c=11, $repetition=6"
attr measurement "$sc=\"erlangen-low.launchd.xml\", $p=1/10, $c=11"
attr network RSUExampleScenario
attr p 1/10
attr processid 5248
attr repetition 6
attr replication #6
attr resultdir results
attr runnumber 56
attr sc "\"erlangen-low.launchd.xml\""
attr seedset 56

scalar . 	c 	11
scalar RSUExampleScenario.node[0].veinsmobility 	startTime 	0.1
scalar RSUExampleScenario.node[0].veinsmobility 	totalTime 	226.8
scalar RSUExampleScenario.node[0].veinsmobility 	stopTime 	227
scalar RSUExampleScenario.node[0].veinsmobility 	minSpeed 	0.24720550588868
scalar RSUExampleScenario.node[0].veinsmobility 	maxSpeed 	18.999907466869
scalar RSUExampleScenario.node[0].veinsmobility 	totalDistance 	3409.3754677697
scalar RSUExampleScenario.node[0].veinsmobility 	totalCO2Emission 	709.19342685092
scalar RSUExampleScenario.node[1].veinsmobility 	startTime 	6.1
scalar RSUExampleScenario.node[1].veinsmobility 	totalTime 	227
scalar RSUExampleScenario.node[1].veinsmobility 	stopTime 	233.2
scalar RSUExampleScenario.node[1].veinsmobility 	minSpeed 	0.24943617441365
scalar RSUExampleScenario.node[1].veinsmobility 	maxSpeed 	18.999918474245
scalar RSUExampleScenario.node[1].veinsmobility 	totalDistance 	3409.3154571254
scalar RSUExampleScenario.node[1].veinsmobility 	totalCO2Emission 	707.47453078953
scalar RSUExampleScenario.node[2].veinsmobility 	startTime 	12.1
scalar RSUExampleScenario.node[2].veinsmobility 	totalTime 	226.7
scalar RSUExampleScenario.node[2].veinsmobility 	stopTime 	238.9
scalar RSUExampleScenario.node[2].veinsmobility 	minSpeed 	0.25731177270855
scalar RSUExampleScenario.node[2].veinsmobility 	maxSpeed 	18.999419445393
scalar RSUExampleScenario.node[2].veinsmobility 	totalDistance 	3409.6697787694
scalar RSUExampleScenario.node[2].veinsmobility 	totalCO2Emission 	706.72764469313
scalar RSUExampleScenario.node[3].veinsmobility 	startTime 	18.1
scalar RSUExampleScenario.node[3].veinsmobility 	totalTime 	226.7
scalar RSUExampleScenario.node[3].veinsmobility 	stopTime 	244.9
scalar RSUExampleScenario.node[3].veinsmobility 	minSpeed 	0.25582689919253
scalar RSUExampleScenario.node[3].veinsmobility 	maxSpeed 	18.999799937436
scalar RSUExampleScenario.node[3].veinsmobility 	totalDistance 	3409.6462048657
scalar RSUExampleScenario.node[3].veinsmobility 	totalCO2Emission 	707.61301717597
scalar RSUExampleScenario.node[4].veinsmobility 	startTime 	24.1
scalar RSUExampleScenario.node[4].veinsmobility 	totalTime 	226.6
scalar RSUExampleScenario.node[4].veinsmobility 	stopTime 	250.8
scalar RSUExampleScenario.node[4].veinsmobility 	minSpeed 	0.24861340306117
scalar RSUExampleScenario.node[4].veinsmobility 	maxSpeed 	18.999988129351
scalar RSUExampleScenario.node[4].veinsmobility 	totalDistance 	3409.2857423362
scalar RSUExampleScenario.node[4].veinsmobility 	totalCO2Emission 	702.27949900215
scalar RSUExampleScenario.node[5].veinsmobility 	startTime 	30.1
scalar RSUExampleScenario.node[5].veinsmobility 	totalTime 	226.9
scalar RSUExampleScenario.node[5].veinsmobility 	stopTime 	257.1
scalar RSUExampleScenario.node[5].veinsmobility 	minSpeed 	0.2599522094205
scalar RSUExampleScenario.node[5].veinsmobility 	maxSpeed 	18.999813700591
scalar RSUExampleScenario.node[5].veinsmobility 	totalDistance 	3409.6313418973
scalar RSUExampleScenario.node[5].veinsmobility 	totalCO2Emission 	708.78436888084
scalar RSUExampleScenario.node[6].veinsmobility 	startTime 	36.1
scalar RSUExampleScenario.node[6].veinsmobility 	totalTime 	227.2
scalar RSUExampleScenario.node[6].veinsmobility 	stopTime 	263.4
scalar RSUExampleScenario.node[6].veinsmobility 	minSpeed 	0.24798569350853
scalar RSUExampleScenario.node[6].veinsmobility 	maxSpeed 	18.999728081727
scalar RSUExampleScenario.node[6].veinsmobility 	totalDistance 	3409.6465223033
scalar RSUExampleScenario.node[6].veinsmobility 	totalCO2Emission 	710.22118081603
scalar RSUExampleScenario.node[7].veinsmobility 	startTime 	42.1
scalar RSUExampleScenario.node[7].veinsmobility 	totalTime 	226.7
scalar RSUExampleScenario.node[7].veinsmobility 	stopTime 	268.9
scalar RSUExampleScenario.node[7].veinsmobility 	minSpeed 	0.25607127712062
scalar RSUExampleScenario.node[7].veinsmobility 	maxSpeed 	18.998850169424
scalar RSUExampleScenario.node[7].veinsmobility 	totalDistance 	3409.6970180685
scalar RSUExampleScenario.node[7].veinsmobility 	totalCO2Emission 	709.06239175693
scalar RSUExampleScenario.node[8].veinsmobility 	startTime 	48.1
scalar RSUExampleScenario.node[8].veinsmobility 	totalTime 	226.9
scalar RSUExampleScenario.node[8].veinsmobility 	stopTime 	275.1
scalar RSUExampleScenario.node[8].veinsmobility 	minSpeed 	0.25325925814663
scalar RSUExampleScenario.node[8].veinsmobility 	maxSpeed 	18.999201505317
scalar RSUExampleScenario.node[8].veinsmobility 	totalDistance 	3409.5261137324
scalar RSUExampleScenario.node[8].veinsmobility 	totalCO2Emission 	707.2983297363
scalar RSUExampleScenario.node[9].veinsmobility 	startTime 	54.1
scalar RSUExampleScenario.node[9].veinsmobility 	totalTime 	226.9
scalar RSUExampleScenario.node[9].veinsmobility 	stopTime 	281.1
scalar RSUExampleScenario.node[9].veinsmobility 	minSpeed 	0.25223724022158
scalar RSUExampleScenario.node[9].veinsmobility 	maxSpeed 	18.999975218906
scalar RSUExampleScenario.node[9].veinsmobility 	totalDistance 	3409.5088358123
scalar RSUExampleScenario.node[9].veinsmobility 	totalCO2Emission 	709.23384345484
scalar RSUExampleScenario.node[10].veinsmobility 	startTime 	60.1
scalar RSUExampleScenario.node[10].veinsmobility 	totalTime 	226.7
scalar RSUExampleScenario.node[10].veinsmobility 	stopTime 	286.9
scalar RSUExampleScenario.node[10].veinsmobility 	minSpeed 	0.25806608963804
scalar RSUExampleScenario.node[10].veinsmobility 	maxSpeed 	18.999974753293
scalar RSUExampleScenario.node[10].veinsmobility 	totalDistance 	3409.9277932711
scalar RSUExampleScenario.node[10].veinsmobility 	totalCO2Emission 	709.9528207464
scalar RSUExampleScenario.node[11].veinsmobility 	startTime 	66.1
scalar RSUExampleScenario.node[11].veinsmobility 	totalTime 	226.9
scalar RSUExampleScenario.node[11].veinsmobility 	stopTime 	293.1
scalar RSUExampleScenario.node[11].veinsmobility 	minSpeed 	0.24823054021806
scalar RSUExampleScenario.node[11].veinsmobility 	maxSpeed 	18.999837645865
scalar RSUExampleScenario.node[11].veinsmobility 	totalDistance 	3409.1753045098
scalar RSUExampleScenario.node[11].veinsmobility 	totalCO2Emission 	704.79074040979
scalar RSUExampleScenario.node[12].veinsmobility 	startTime 	72.1
scalar RSUExampleScenario.node[12].veinsmobility 	totalTime 	227.1
scalar RSUExampleScenario.node[12].veinsmobility 	stopTime 	299.3
scalar RSUExampleScenario.node[12].veinsmobility 	minSpeed 	0.2530085988068
scalar RSUExampleScenario.node[12].veinsmobility 	maxSpeed 	18.999997614156
scalar RSUExampleScenario.node[12].veinsmobility 	totalDistance 	3409.406942664
scalar RSUExampleScenario.node[12].veinsmobility 	totalCO2Emission 	708.90571966556
scalar RSUExampleScenario.node[13].veinsmobility 	startTime 	78.1
scalar RSUExampleScenario.node[13].veinsmobility 	totalTime 	227.1
scalar RSUExampleScenario.node[13].veinsmobility 	stopTime 	305.3
scalar RSUExampleScenario.node[13].veinsmobility 	minSpeed 	0.25530426988797
scalar RSUExampleScenario.node[13].veinsmobility 	maxSpeed 	18.999803735099
scalar RSUExampleScenario.node[13].veinsmobility 	totalDistance 	3409.8268084619
scalar RSUExampleScenario.node[13].veinsmobility 	totalCO2Emission 	709.11717248941
scalar RSUExampleScenario.node[14].veinsmobility 	startTime 	84.1
scalar RSUExampleScenario.node[14].veinsmobility 	totalTime 	226.8
scalar RSUExampleScenario.node[14].veinsmobility 	stopTime 	311
scalar RSUExampleScenario.node[14].veinsmobility 	minSpeed 	0.24828616557131
scalar RSUExampleScenario.node[14].veinsmobility 	maxSpeed 	18.999444118945
scalar RSUExampleScenario.node[14].veinsmobility 	totalDistance 	3409.3951949096
scalar RSUExampleScenario.node[14].veinsmobility 	totalCO2Emission 	704.20983863387
scalar RSUExampleScenario.node[15].veinsmobility 	startTime 	90.1
scalar RSUExampleScenario.node[15].veinsmobility 	totalTime 	226.8
scalar RSUExampleScenario.node[15].veinsmobility 	stopTime 	317
scalar RSUExampleScenario.node[15].veinsmobility 	minSpeed 	0.25699567048298
scalar RSUExampleScenario.node[15].veinsmobility 	maxSpeed 	18.999906713348
scalar RSUExampleScenario.node[15].veinsmobility 	totalDistance 	3409.2721150617
scalar RSUExampleScenario.node[15].veinsmobility 	totalCO2Emission 	705.66185561073
scalar RSUExampleScenario.node[16].veinsmobility 	startTime 	96.1
scalar RSUExampleScenario.node[16].veinsmobility 	totalTime 	226.8
scalar RSUExampleScenario.node[16].veinsmobility 	stopTime 	323
scalar RSUExampleScenario.node[16].veinsmobility 	minSpeed 	0.24863476930046
scalar RSUExampleScenario.node[16].veinsmobility 	maxSpeed 	18.999962861245
scalar RSUExampleScenario.node[16].veinsmobility 	totalDistance 	3409.9027635537
scalar RSUExampleScenario.node[16].veinsmobility 	totalCO2Emission 	708.66981360737
scalar RSUExampleScenario.node[17].veinsmobility 	startTime 	102.1
scalar RSUExampleScenario.node[17].veinsmobility 	totalTime 	226.8
scalar RSUExampleScenario.node[17].veinsmobility 	stopTime 	329
scalar RSUExampleScenario.node[17].veinsmobility 	minSpeed 	0.25867465104675
scalar RSUExampleScenario.node[17].veinsmobility 	maxSpeed 	18.999982435731
scalar RSUExampleScenario.node[17].veinsmobility 	totalDistance 	3409.5072065721
scalar RSUExampleScenario.node[17].veinsmobility 	totalCO2Emission 	703.66749808506
scalar RSUExampleScenario.node[18].veinsmobility 	startTime 	108.1
scalar RSUExampleScenario.node[18].veinsmobility 	totalTime 	226.8
scalar RSUExampleScenario.node[18].veinsmobility 	stopTime 	335
scalar RSUExampleScenario.node[18].veinsmobility 	minSpeed 	0.24836095699621
scalar RSUExampleScenario.node[18].veinsmobility 	maxSpeed 	18.999395628546
scalar RSUExampleScenario.node[18].veinsmobility 	totalDistance 	3409.8618254014
scalar RSUExampleScenario.node[18].veinsmobility 	totalCO2Emission 	702.86823745567
scalar RSUExampleScenario.node[19].veinsmobility 	startTime 	114.1
scalar RSUExampleScenario.node[19].veinsmobility 	totalTime 	226.9
scalar RSUExampleScenario.node[19].veinsmobility 	stopTime 	341.1
scalar RSUExampleScenario.node[19].veinsmobility 	minSpeed 	0.25795134886354
scalar RSUExampleScenario.node[19].veinsmobility 	maxSpeed 	18.99985420899
scalar RSUExampleScenario.node[19].veinsmobility 	totalDistance 	3409.3781538269
scalar RSUExampleScenario.node[19].veinsmobility 	totalCO2Emission 	707.85939617339
scalar RSUExampleScenario.node[20].veinsmobility 	startTime 	120.1
scalar RSUExampleScenario.node[20].veinsmobility 	totalTime 	226.7
scalar RSUExampleScenario.node[20].veinsmobility 	stopTime 	346.9
scalar RSUExampleScenario.node[20].veinsmobility 	minSpeed 	0.25470745846815
scalar RSUExampleScenario.node[20].veinsmobility 	maxSpeed 	18.999657564559
scalar RSUExampleScenario.node[20].veinsmobility 	totalDistance 	3409.4234400253
scalar RSUExampleScenario.node[20].veinsmobility 	totalCO2Emission 	705.27839331925
scalar RSUExampleScenario.node[21].veinsmobility 	startTime 	126.1
scalar RSUExampleScenario.node[21].veinsmobility 	totalTime 	226.7
scalar RSUExampleScenario.node[21].veinsmobility 	stopTime 	352.9
scalar RSUExampleScenario.node[21].veinsmobility 	minSpeed 	0.25260475848033
scalar RSUExampleScenario.node[21].veinsmobility 	maxSpeed 	18.999787350434
scalar RSUExampleScenario.node[21].veinsmobility 	totalDistance 	3409.7059697346
scalar RSUExampleScenario.node[21].veinsmobility 	totalCO2Emission 	709.94119767431
scalar RSUExampleScenario.node[22].veinsmobility 	startTime 	132.1
scalar RSUExampleScenario.node[22].veinsmobility 	totalTime 	226.9
scalar RSUExampleScenario.node[22].veinsmobility 	stopTime 	359.1
scalar RSUExampleScenario.node[22].veinsmobility 	minSpeed 	0.24819950572797
scalar RSUExampleScenario.node[22].veinsmobility 	maxSpeed 	18.999947768024
scalar RSUExampleScenario.node[22].veinsmobility 	totalDistance 	3409.2068784015
scalar RSUExampleScenario.node[22].veinsmobility 	totalCO2Emission 	713.8386203048
scalar RSUExampleScenario.node[23].veinsmobility 	startTime 	138.1
scalar RSUExampleScenario.node[23].veinsmobility 	totalTime 	227
scalar RSUExampleScenario.node[23].veinsmobility 	stopTime 	365.2
scalar RSUExampleScenario.node[23].veinsmobility 	minSpeed 	0.2488091117877
scalar RSUExampleScenario.node[23].veinsmobility 	maxSpeed 	18.999939022725
scalar RSUExampleScenario.node[23].veinsmobility 	totalDistance 	3409.5327082747
scalar RSUExampleScenario.node[23].veinsmobility 	totalCO2Emission 	704.5144374904
scalar RSUExampleScenario.node[24].veinsmobility 	startTime 	144.1
scalar RSUExampleScenario.node[24].veinsmobility 	totalTime 	227.1
scalar RSUExampleScenario.node[24].veinsmobility 	stopTime 	371.3
scalar RSUExampleScenario.node[24].veinsmobility 	minSpeed 	0.25256541571626
scalar RSUExampleScenario.node[24].veinsmobility 	maxSpeed 	18.999915608442
scalar RSUExampleScenario.node[24].veinsmobility 	totalDistance 	3409.5055426101
scalar RSUExampleScenario.node[24].veinsmobility 	totalCO2Emission 	708.19179119674
scalar RSUExampleScenario.node[25].veinsmobility 	startTime 	150.1
scalar RSUExampleScenario.node[25].veinsmobility 	totalTime 	226.8
scalar RSUExampleScenario.node[25].veinsmobility 	stopTime 	377
scalar RSUExampleScenario.node[25].veinsmobility 	minSpeed 	0.25206537899165
scalar RSUExampleScenario.node[25].veinsmobility 	maxSpeed 	18.999987171188
scalar RSUExampleScenario.node[25].veinsmobility 	totalDistance 	3409.501062848
scalar RSUExampleScenario.node[25].veinsmobility 	totalCO2Emission 	707.34280957075
scalar RSUExampleScenario.node[26].veinsmobility 	startTime 	156.1
scalar RSUExampleScenario.node[26].veinsmobility 	totalTime 	227
scalar RSUExampleScenario.node[26].veinsmobility 	stopTime 	383.2
scalar RSUExampleScenario.node[26].veinsmobility 	minSpeed 	0.24738515208336
scalar RSUExampleScenario.node[26].veinsmobility 	maxSpeed 	18.999607577105
scalar RSUExampleScenario.node[26].veinsmobility 	totalDistance 	3409.7072650355
scalar RSUExampleScenario.node[26].veinsmobility 	totalCO2Emission 	707.3068532854
scalar RSUExampleScenario.node[27].veinsmobility 	startTime 	162.1
scalar RSUExampleScenario.node[27].veinsmobility 	totalTime 	227
scalar RSUExampleScenario.node[27].veinsmobility 	stopTime 	389.2
scalar RSUExampleScenario.node[27].veinsmobility 	minSpeed 	0.24869640478562
scalar RSUExampleScenario.node[27].veinsmobility 	maxSpeed 	18.999902540301
scalar RSUExampleScenario.node[27].veinsmobility 	totalDistance 	3409.4130575922
scalar RSUExampleScenario.node[27].veinsmobility 	totalCO2Emission 	706.15137657156
scalar RSUExampleScenario.node[28].veinsmobility 	startTime 	168.1
scalar RSUExampleScenario.node[28].veinsmobility 	totalTime 	226.9
scalar RSUExampleScenario.node[28].veinsmobility 	stopTime 	395.1
scalar RSUExampleScenario.node[28].veinsmobility 	minSpeed 	0.24877676858567
scalar RSUExampleScenario.node[28].veinsmobility 	maxSpeed 	18.999816052201
scalar RSUExampleScenario.node[28].veinsmobility 	totalDistance 	3409.683105111
scalar RSUExampleScenario.node[28].veinsmobility 	totalCO2Emission 	705.33237718409
scalar RSUExampleScenario.node[29].veinsmobility 	startTime 	174.1
scalar RSUExampleScenario.node[29].veinsmobility 	totalTime 	227
scalar RSUExampleScenario.node[29].veinsmobility 	stopTime 	401.2
scalar RSUExampleScenario.node[29].veinsmobility 	minSpeed 	0.25353969390597
scalar RSUExampleScenario.node[29].veinsmobility 	maxSpeed 	18.999771516798
scalar RSUExampleScenario.node[29].veinsmobility 	totalDistance 	3409.8585529258
scalar RSUExampleScenario.node[29].veinsmobility 	totalCO2Emission 	703.31272255067
scalar RSUExampleScenario.node[30].veinsmobility 	startTime 	180.1
scalar RSUExampleScenario.node[30].veinsmobility 	totalTime 	227
scalar RSUExampleScenario.node[30].veinsmobility 	stopTime 	407.2
scalar RSUExampleScenario.node[30].veinsmobility 	minSpeed 	0.2524150926841
scalar RSUExampleScenario.node[30].veinsmobility 	maxSpeed 	18.999991346716
scalar RSUExampleScenario.node[30].veinsmobility 	totalDistance 	3409.1747479138
scalar RSUExampleScenario.node[30].veinsmobility 	totalCO2Emission 	708.91361222562
scalar RSUExampleScenario.node[31].veinsmobility 	startTime 	186.1
scalar RSUExampleScenario.node[31].veinsmobility 	totalTime 	226.8
scalar RSUExampleScenario.node[31].veinsmobility 	stopTime 	413
scalar RSUExampleScenario.node[31].veinsmobility 	minSpeed 	0.2566892788501
scalar RSUExampleScenario.node[31].veinsmobility 	maxSpeed 	18.999986226615
scalar RSUExampleScenario.node[31].veinsmobility 	totalDistance 	3409.4460500901
scalar RSUExampleScenario.node[31].veinsmobility 	totalCO2Emission 	712.39276148474
scalar RSUExampleScenario.node[32].veinsmobility 	startTime 	192.1
scalar RSUExampleScenario.node[32].veinsmobility 	totalTime 	227
scalar RSUExampleScenario.node[32].veinsmobility 	stopTime 	419.2
scalar RSUExampleScenario.node[32].veinsmobility 	minSpeed 	0.25462072391738
scalar RSUExampleScenario.node[32].veinsmobility 	maxSpeed 	18.999777104601
scalar RSUExampleScenario.node[32].veinsmobility 	totalDistance 	3409.4426623883
scalar RSUExampleScenario.node[32].veinsmobility 	totalCO2Emission 	711.4570468975
scalar RSUExampleScenario.node[33].veinsmobility 	startTime 	198.1
scalar RSUExampleScenario.node[33].veinsmobility 	totalTime 	227.1
scalar RSUExampleScenario.node[33].veinsmobility 	stopTime 	425.3
scalar RSUExampleScenario.node[33].veinsmobility 	minSpeed 	0.24810498485039
scalar RSUExampleScenario.node[33].veinsmobility 	maxSpeed 	18.999435523171
scalar RSUExampleScenario.node[33].veinsmobility 	totalDistance 	3409.726918866
scalar RSUExampleScenario.node[33].veinsmobility 	totalCO2Emission 	708.01048303912
scalar RSUExampleScenario.node[34].veinsmobility 	startTime 	204.1
scalar RSUExampleScenario.node[34].veinsmobility 	totalTime 	226.9
scalar RSUExampleScenario.node[34].veinsmobility 	stopTime 	431.1
scalar RSUExampleScenario.node[34].veinsmobility 	minSpeed 	0.25949276947766
scalar RSUExampleScenario.node[34].veinsmobility 	maxSpeed 	18.999716673149
scalar RSUExampleScenario.node[34].veinsmobility 	totalDistance 	3409.2802343451
scalar RSUExampleScenario.node[34].veinsmobility 	totalCO2Emission 	705.22842452525
scalar RSUExampleScenario.node[35].veinsmobility 	startTime 	210.1
scalar RSUExampleScenario.node[35].veinsmobility 	totalTime 	226.8
scalar RSUExampleScenario.node[35].veinsmobility 	stopTime 	437
scalar RSUExampleScenario.node[35].veinsmobility 	minSpeed 	0.25634505339386
scalar RSUExampleScenario.node[35].veinsmobility 	maxSpeed 	18.999965743453
scalar RSUExampleScenario.node[35].veinsmobility 	totalDistance 	3409.5412552189
scalar RSUExampleScenario.node[35].veinsmobility 	totalCO2Emission 	712.39880231423
scalar RSUExampleScenario.node[36].veinsmobility 	startTime 	216.1
scalar RSUExampleScenario.node[36].veinsmobility 	totalTime 	227.1
scalar RSUExampleScenario.node[36].veinsmobility 	stopTime 	443.3
scalar RSUExampleScenario.node[36].veinsmobility 	minSpeed 	0.25957414666493
scalar RSUExampleScenario.node[36].veinsmobility 	maxSpeed 	18.999652807824
scalar RSUExampleScenario.node[36].veinsmobility 	totalDistance 	3409.7554483514
scalar RSUExampleScenario.node[36].veinsmobility 	totalCO2Emission 	708.699326166
scalar RSUExampleScenario.node[37].veinsmobility 	startTime 	222.1
scalar RSUExampleScenario.node[37].veinsmobility 	totalTime 	226.4
scalar RSUExampleScenario.node[37].veinsmobility 	stopTime 	448.6
scalar RSUExampleScenario.node[37].veinsmobility 	minSpeed 	0.25816274149367
scalar RSUExampleScenario.node[37].veinsmobility 	maxSpeed 	18.999931682558
scalar RSUExampleScenario.node[37].veinsmobility 	totalDistance 	3409.7675516263
scalar RSUExampleScenario.node[37].veinsmobility 	totalCO2Emission 	706.39032325053
scalar RSUExampleScenario.node[38].veinsmobility 	startTime 	228.1
scalar RSUExampleScenario.node[38].veinsmobility 	totalTime 	226.9
scalar RSUExampleScenario.node[38].veinsmobility 	stopTime 	455.1
scalar RSUExampleScenario.node[38].veinsmobility 	minSpeed 	0.25358193261689
scalar RSUExampleScenario.node[38].veinsmobility 	maxSpeed 	18.999857335431
scalar RSUExampleScenario.node[38].veinsmobility 	totalDistance 	3409.3345054226
scalar RSUExampleScenario.node[38].veinsmobility 	totalCO2Emission 	707.6673025465
scalar RSUExampleScenario.node[39].veinsmobility 	startTime 	234.1
scalar RSUExampleScenario.node[39].veinsmobility 	totalTime 	227
scalar RSUExampleScenario.node[39].veinsmobility 	stopTime 	461.2
scalar RSUExampleScenario.node[39].veinsmobility 	minSpeed 	0.25024376007658
scalar RSUExampleScenario.node[39].veinsmobility 	maxSpeed 	18.999824048881
scalar RSUExampleScenario.node[39].veinsmobility 	totalDistance 	3409.3231528748
scalar RSUExampleScenario.node[39].veinsmobility 	totalCO2Emission 	708.68699291121
scalar RSUExampleScenario.node[40].veinsmobility 	startTime 	240.1
scalar RSUExampleScenario.node[40].veinsmobility 	totalTime 	226.9
scalar RSUExampleScenario.node[40].veinsmobility 	stopTime 	467.1
scalar RSUExampleScenario.node[40].veinsmobility 	minSpeed 	0.25927290648245
scalar RSUExampleScenario.node[40].veinsmobility 	maxSpeed 	18.999916119699
scalar RSUExampleScenario.node[40].veinsmobility 	totalDistance 	3409.5334252358
scalar RSUExampleScenario.node[40].veinsmobility 	totalCO2Emission 	706.9512997695
scalar RSUExampleScenario.node[41].veinsmobility 	startTime 	246.1
scalar RSUExampleScenario.node[41].veinsmobility 	totalTime 	226.9
scalar RSUExampleScenario.node[41].veinsmobility 	stopTime 	473.1
scalar RSUExampleScenario.node[41].veinsmobility 	minSpeed 	0.25245152915269
scalar RSUExampleScenario.node[41].veinsmobility 	maxSpeed 	18.999881706666
scalar RSUExampleScenario.node[41].veinsmobility 	totalDistance 	3409.4028674514
scalar RSUExampleScenario.node[41].veinsmobility 	totalCO2Emission 	704.51551554238
scalar RSUExampleScenario.node[42].veinsmobility 	startTime 	252.1
scalar RSUExampleScenario.node[42].veinsmobility 	totalTime 	227
scalar RSUExampleScenario.node[42].veinsmobility 	stopTime 	479.2
scalar RSUExampleScenario.node[42].veinsmobility 	minSpeed 	0.24724083196116
scalar RSUExampleScenario.node[42].veinsmobility 	maxSpeed 	18.99991459053
scalar RSUExampleScenario.node[42].veinsmobility 	totalDistance 	3409.6180962676
scalar RSUExampleScenario.node[42].veinsmobility 	totalCO2Emission 	708.14500548747
scalar RSUExampleScenario.node[43].veinsmobility 	startTime 	258.1
scalar RSUExampleScenario.node[43].veinsmobility 	totalTime 	227
scalar RSUExampleScenario.node[43].veinsmobility 	stopTime 	485.2
scalar RSUExampleScenario.node[43].veinsmobility 	minSpeed 	0.24831994856382
scalar RSUExampleScenario.node[43].veinsmobility 	maxSpeed 	18.999691833728
scalar RSUExampleScenario.node[43].veinsmobility 	totalDistance 	3409.1795928258
scalar RSUExampleScenario.node[43].veinsmobility 	totalCO2Emission 	706.78123998013
scalar RSUExampleScenario.node[44].veinsmobility 	startTime 	264.1
scalar RSUExampleScenario.node[44].veinsmobility 	totalTime 	226.9
scalar RSUExampleScenario.node[44].veinsmobility 	stopTime 	491.1
scalar RSUExampleScenario.node[44].veinsmobility 	minSpeed 	0.25001149674552
scalar RSUExampleScenario.node[44].veinsmobility 	maxSpeed 	18.999683867407
scalar RSUExampleScenario.node[44].veinsmobility 	totalDistance 	3409.6585017283
scalar RSUExampleScenario.node[44].veinsmobility 	totalCO2Emission 	703.35142372619
scalar RSUExampleScenario.node[45].veinsmobility 	startTime 	270.1
scalar RSUExampleScenario.node[45].veinsmobility 	totalTime 	226.8
scalar RSUExampleScenario.node[45].veinsmobility 	stopTime 	497
scalar RSUExampleScenario.node[45].veinsmobility 	minSpeed 	0.24758026981843
scalar RSUExampleScenario.node[45].veinsmobility 	maxSpeed 	18.999794957717
scalar RSUExampleScenario.node[45].veinsmobility 	totalDistance 	3409.2631022961
scalar RSUExampleScenario.node[45].veinsmobility 	totalCO2Emission 	702.76889881975
scalar RSUExampleScenario.node[46].veinsmobility 	startTime 	276.1
scalar RSUExampleScenario.node[46].veinsmobility 	totalTime 	227
scalar RSUExampleScenario.node[46].veinsmobility 	stopTime 	503.2
scalar RSUExampleScenario.node[46].veinsmobility 	minSpeed 	0.25694889581506
scalar RSUExampleScenario.node[46].veinsmobility 	maxSpeed 	18.99999389746
scalar RSUExampleScenario.node[46].veinsmobility 	totalDistance 	3409.336683371
scalar RSUExampleScenario.node[46].veinsmobility 	totalCO2Emission 	711.09573618192
scalar RSUExampleScenario.node[47].veinsmobility 	startTime 	282.1
scalar RSUExampleScenario.node[47].veinsmobility 	totalTime 	226.8
scalar RSUExampleScenario.node[47].veinsmobility 	stopTime 	509
scalar RSUExampleScenario.node[47].veinsmobility 	minSpeed 	0.25069855939271
scalar RSUExampleScenario.node[47].veinsmobility 	maxSpeed 	18.999675804742
scalar RSUExampleScenario.node[47].veinsmobility 	totalDistance 	3409.3404659692
scalar RSUExampleScenario.node[47].veinsmobility 	totalCO2Emission 	703.4013435291
scalar RSUExampleScenario.node[48].veinsmobility 	startTime 	288.1
scalar RSUExampleScenario.node[48].veinsmobility 	totalTime 	226.8
scalar RSUExampleScenario.node[48].veinsmobility 	stopTime 	515
scalar RSUExampleScenario.node[48].veinsmobility 	minSpeed 	0.25079119037674
scalar RSUExampleScenario.node[48].veinsmobility 	maxSpeed 	18.999872644099
scalar RSUExampleScenario.node[48].veinsmobility 	totalDistance 	3409.3894674293
scalar RSUExampleScenario.node[48].veinsmobility 	totalCO2Emission 	703.03625853526
scalar RSUExampleScenario.node[49].veinsmobility 	startTime 	294.1
scalar RSUExampleScenario.node[49].veinsmobility 	totalTime 	226.6
scalar RSUExampleScenario.node[49].veinsmobility 	stopTime 	520.8
scalar RSUExampleScenario.node[49].veinsmobility 	minSpeed 	0.25936590242269
scalar RSUExampleScenario.node[49].veinsmobility 	maxSpeed 	18.999542419519
scalar RSUExampleScenario.node[49].veinsmobility 	totalDistance 	3409.3195203031
scalar RSUExampleScenario.node[49].veinsmobility 	totalCO2Emission 	707.24187255755
scalar RSUExampleScenario.node[50].veinsmobility 	startTime 	300.1
scalar RSUExampleScenario.node[50].veinsmobility 	totalTime 	226.6
scalar RSUExampleScenario.node[50].veinsmobility 	stopTime 	526.8
scalar RSUExampleScenario.node[50].veinsmobility 	minSpeed 	0.24748162739188
scalar RSUExampleScenario.node[50].veinsmobility 	maxSpeed 	18.999821048749
scalar RSUExampleScenario.node[50].veinsmobility 	totalDistance 	3409.8936424521
scalar RSUExampleScenario.node[50].veinsmobility 	totalCO2Emission 	706.72899955727
scalar RSUExampleScenario.node[51].veinsmobility 	startTime 	306.1
scalar RSUExampleScenario.node[51].veinsmobility 	totalTime 	226.8
scalar RSUExampleScenario.node[51].veinsmobility 	stopTime 	533
scalar RSUExampleScenario.node[51].veinsmobility 	minSpeed 	0.25774205490644
scalar RSUExampleScenario.node[51].veinsmobility 	maxSpeed 	18.99998883175
scalar RSUExampleScenario.node[51].veinsmobility 	totalDistance 	3409.3016746389
scalar RSUExampleScenario.node[51].veinsmobility 	totalCO2Emission 	705.55209217562
scalar RSUExampleScenario.node[52].veinsmobility 	startTime 	312.1
scalar RSUExampleScenario.node[52].veinsmobility 	totalTime 	226.8
scalar RSUExampleScenario.node[52].veinsmobility 	stopTime 	539
scalar RSUExampleScenario.node[52].veinsmobility 	minSpeed 	0.25719000896276
scalar RSUExampleScenario.node[52].veinsmobility 	maxSpeed 	18.999830898223
scalar RSUExampleScenario.node[52].veinsmobility 	totalDistance 	3409.3892218049
scalar RSUExampleScenario.node[52].veinsmobility 	totalCO2Emission 	704.07844782738
scalar RSUExampleScenario.node[53].veinsmobility 	startTime 	318.1
scalar RSUExampleScenario.node[53].veinsmobility 	totalTime 	226.9
scalar RSUExampleScenario.node[53].veinsmobility 	stopTime 	545.1
scalar RSUExampleScenario.node[53].veinsmobility 	minSpeed 	0.25414502731897
scalar RSUExampleScenario.node[53].veinsmobility 	maxSpeed 	18.999851616779
scalar RSUExampleScenario.node[53].veinsmobility 	totalDistance 	3409.379797169
scalar RSUExampleScenario.node[53].veinsmobility 	totalCO2Emission 	701.93095523916
scalar RSUExampleScenario.node[54].veinsmobility 	startTime 	324.1
scalar RSUExampleScenario.node[54].veinsmobility 	totalTime 	226.9
scalar RSUExampleScenario.node[54].veinsmobility 	stopTime 	551.1
scalar RSUExampleScenario.node[54].veinsmobility 	minSpeed 	0.24851731786155
scalar RSUExampleScenario.node[54].veinsmobility 	maxSpeed 	18.999735486456
scalar RSUExampleScenario.node[54].veinsmobility 	totalDistance 	3409.1493431087
scalar RSUExampleScenario.node[54].veinsmobility 	totalCO2Emission 	704.83849559511
scalar RSUExampleScenario.node[55].veinsmobility 	startTime 	330.1
scalar RSUExampleScenario.node[55].veinsmobility 	totalTime 	226.5
scalar RSUExampleScenario.node[55].veinsmobility 	stopTime 	556.7
scalar RSUExampleScenario.node[55].veinsmobility 	minSpeed 	0.25213549281447
scalar RSUExampleScenario.node[55].veinsmobility 	maxSpeed 	18.999996601995
scalar RSUExampleScenario.node[55].veinsmobility 	totalDistance 	3409.4663848115
scalar RSUExampleScenario.node[55].veinsmobility 	totalCO2Emission 	703.68482745415
scalar RSUExampleScenario.node[56].veinsmobility 	startTime 	336.1
scalar RSUExampleScenario.node[56].veinsmobility 	totalTime 	227.3
scalar RSUExampleScenario.node[56].veinsmobility 	stopTime 	563.5
scalar RSUExampleScenario.node[56].veinsmobility 	minSpeed 	0.25128043213696
scalar RSUExampleScenario.node[56].veinsmobility 	maxSpeed 	18.999720440272
scalar RSUExampleScenario.node[56].veinsmobility 	totalDistance 	3409.8955691774
scalar RSUExampleScenario.node[56].veinsmobility 	totalCO2Emission 	706.29732990611
scalar RSUExampleScenario.node[57].veinsmobility 	startTime 	342.1
scalar RSUExampleScenario.node[57].veinsmobility 	totalTime 	227
scalar RSUExampleScenario.node[57].veinsmobility 	stopTime 	569.2
scalar RSUExampleScenario.node[57].veinsmobility 	minSpeed 	0.25253323724167
scalar RSUExampleScenario.node[57].veinsmobility 	maxSpeed 	18.999810814539
scalar RSUExampleScenario.node[57].veinsmobility 	totalDistance 	3409.7323919317
scalar RSUExampleScenario.node[57].veinsmobility 	totalCO2Emission 	714.64013353308
scalar RSUExampleScenario.node[58].veinsmobility 	startTime 	348.1
scalar RSUExampleScenario.node[58].veinsmobility 	totalTime 	227
scalar RSUExampleScenario.node[58].veinsmobility 	stopTime 	575.2
scalar RSUExampleScenario.node[58].veinsmobility 	minSpeed 	0.24940330418851
scalar RSUExampleScenario.node[58].veinsmobility 	maxSpeed 	18.999988684405
scalar RSUExampleScenario.node[58].veinsmobility 	totalDistance 	3409.6763874204
scalar RSUExampleScenario.node[58].veinsmobility 	totalCO2Emission 	709.00513289129
scalar RSUExampleScenario.node[59].veinsmobility 	startTime 	354.1
scalar RSUExampleScenario.node[59].veinsmobility 	totalTime 	226.9
scalar RSUExampleScenario.node[59].veinsmobility 	stopTime 	581.1
scalar RSUExampleScenario.node[59].veinsmobility 	minSpeed 	0.25196680005221
scalar RSUExampleScenario.node[59].veinsmobility 	maxSpeed 	18.999980436077
scalar RSUExampleScenario.node[59].veinsmobility 	totalDistance 	3409.788011511
scalar RSUExampleScenario.node[59].veinsmobility 	totalCO2Emission 	708.58291197869
scalar RSUExampleScenario.node[60].veinsmobility 	startTime 	360.1
scalar RSUExampleScenario.node[60].veinsmobility 	totalTime 	226.9
scalar RSUExampleScenario.node[60].veinsmobility 	stopTime 	587.1
scalar RSUExampleScenario.node[60].veinsmobility 	minSpeed 	0.24722071271134
scalar RSUExampleScenario.node[60].veinsmobility 	maxSpeed 	18.999809762877
scalar RSUExampleScenario.node[60].veinsmobility 	totalDistance 	3409.5562312764
scalar RSUExampleScenario.node[60].veinsmobility 	totalCO2Emission 	706.91226689246
scalar RSUExampleScenario.node[61].veinsmobility 	startTime 	366.1
scalar RSUExampleScenario.node[61].veinsmobility 	totalTime 	227
scalar RSUExampleScenario.node[61].veinsmobility 	stopTime 	593.2
scalar RSUExampleScenario.node[61].veinsmobility 	minSpeed 	0.25394832375343
scalar RSUExampleScenario.node[61].veinsmobility 	maxSpeed 	18.999769404456
scalar RSUExampleScenario.node[61].veinsmobility 	totalDistance 	3409.485411566
scalar RSUExampleScenario.node[61].veinsmobility 	totalCO2Emission 	707.50613076082
scalar RSUExampleScenario.node[62].veinsmobility 	startTime 	372.1
scalar RSUExampleScenario.node[62].veinsmobility 	totalTime 	226.8
scalar RSUExampleScenario.node[62].veinsmobility 	stopTime 	599
scalar RSUExampleScenario.node[62].veinsmobility 	minSpeed 	0.25736181196314
scalar RSUExampleScenario.node[62].veinsmobility 	maxSpeed 	18.999714863517
scalar RSUExampleScenario.node[62].veinsmobility 	totalDistance 	3409.1432670935
scalar RSUExampleScenario.node[62].veinsmobility 	totalCO2Emission 	710.14801987452
scalar RSUExampleScenario.node[63].veinsmobility 	startTime 	378.1
scalar RSUExampleScenario.node[63].veinsmobility 	totalTime 	226.8
scalar RSUExampleScenario.node[63].veinsmobility 	stopTime 	605
scalar RSUExampleScenario.node[63].veinsmobility 	minSpeed 	0.25830610609497
scalar RSUExampleScenario.node[63].veinsmobility 	maxSpeed 	18.999435100388
scalar RSUExampleScenario.node[63].veinsmobility 	totalDistance 	3409.6099624445
scalar RSUExampleScenario.node[63].veinsmobility 	totalCO2Emission 	708.13748263956
scalar RSUExampleScenario.node[64].veinsmobility 	startTime 	384.1
scalar RSUExampleScenario.node[64].veinsmobility 	totalTime 	226.9
scalar RSUExampleScenario.node[64].veinsmobility 	stopTime 	611.1
scalar RSUExampleScenario.node[64].veinsmobility 	minSpeed 	0.25690113214077
scalar RSUExampleScenario.node[64].veinsmobility 	maxSpeed 	18.999980736154
scalar RSUExampleScenario.node[64].veinsmobility 	totalDistance 	3409.5155978967
scalar RSUExampleScenario.node[64].veinsmobility 	totalCO2Emission 	706.62068612164
scalar RSUExampleScenario.node[65].veinsmobility 	startTime 	390.1
scalar RSUExampleScenario.node[65].veinsmobility 	totalTime 	226.9
scalar RSUExampleScenario.node[65].veinsmobility 	stopTime 	617.1
scalar RSUExampleScenario.node[65].veinsmobility 	minSpeed 	0.25227169115888
scalar RSUExampleScenario.node[65].veinsmobility 	maxSpeed 	18.999858317354
scalar RSUExampleScenario.node[65].veinsmobility 	totalDistance 	3409.0749711506
scalar RSUExampleScenario.node[65].veinsmobility 	totalCO2Emission 	709.69280200736
scalar RSUExampleScenario.node[66].veinsmobility 	startTime 	396.1
scalar RSUExampleScenario.node[66].veinsmobility 	totalTime 	227
scalar RSUExampleScenario.node[66].veinsmobility 	stopTime 	623.2
scalar RSUExampleScenario.node[66].veinsmobility 	minSpeed 	0.2543433635789
scalar RSUExampleScenario.node[66].veinsmobility 	maxSpeed 	18.999996237629
scalar RSUExampleScenario.node[66].veinsmobility 	totalDistance 	3409.4673913534
scalar RSUExampleScenario.node[66].veinsmobility 	totalCO2Emission 	705.63265240633
scalar RSUExampleScenario.node[67].veinsmobility 	startTime 	402.1
scalar RSUExampleScenario.node[67].veinsmobility 	totalTime 	226.9
scalar RSUExampleScenario.node[67].veinsmobility 	stopTime 	629.1
scalar RSUExampleScenario.node[67].veinsmobility 	minSpeed 	0.25325740096974
scalar RSUExampleScenario.node[67].veinsmobility 	maxSpeed 	18.999890678884
scalar RSUExampleScenario.node[67].veinsmobility 	totalDistance 	3409.3843613502
scalar RSUExampleScenario.node[67].veinsmobility 	totalCO2Emission 	710.78365905867
scalar RSUExampleScenario.node[68].veinsmobility 	startTime 	408.1
scalar RSUExampleScenario.node[68].veinsmobility 	totalTime 	226.8
scalar RSUExampleScenario.node[68].veinsmobility 	stopTime 	635
scalar RSUExampleScenario.node[68].veinsmobility 	minSpeed 	0.24896856375877
scalar RSUExampleScenario.node[68].veinsmobility 	maxSpeed 	18.99983013429
scalar RSUExampleScenario.node[68].veinsmobility 	totalDistance 	3409.0800705182
scalar RSUExampleScenario.node[68].veinsmobility 	totalCO2Emission 	705.85865522838
scalar RSUExampleScenario.node[69].veinsmobility 	startTime 	414.1
scalar RSUExampleScenario.node[69].veinsmobility 	totalTime 	227.4
scalar RSUExampleScenario.node[69].veinsmobility 	stopTime 	641.6
scalar RSUExampleScenario.node[69].veinsmobility 	minSpeed 	0.24919425713643
scalar RSUExampleScenario.node[69].veinsmobility 	maxSpeed 	18.999826306086
scalar RSUExampleScenario.node[69].veinsmobility 	totalDistance 	3409.3692236152
scalar RSUExampleScenario.node[69].veinsmobility 	totalCO2Emission 	708.05044572792
scalar RSUExampleScenario.node[70].veinsmobility 	startTime 	420.1
scalar RSUExampleScenario.node[70].veinsmobility 	totalTime 	226.9
scalar RSUExampleScenario.node[70].veinsmobility 	stopTime 	647.1
scalar RSUExampleScenario.node[70].veinsmobility 	minSpeed 	0.25911050439999
scalar RSUExampleScenario.node[70].veinsmobility 	maxSpeed 	18.999705173858
scalar RSUExampleScenario.node[70].veinsmobility 	totalDistance 	3409.2366142279
scalar RSUExampleScenario.node[70].veinsmobility 	totalCO2Emission 	708.35573151961
scalar RSUExampleScenario.node[71].veinsmobility 	startTime 	426.1
scalar RSUExampleScenario.node[71].veinsmobility 	totalTime 	227.1
scalar RSUExampleScenario.node[71].veinsmobility 	stopTime 	653.3
scalar RSUExampleScenario.node[71].veinsmobility 	minSpeed 	0.24931184995407
scalar RSUExampleScenario.node[71].veinsmobility 	maxSpeed 	18.99998522544
scalar RSUExampleScenario.node[71].veinsmobility 	totalDistance 	3409.6438651567
scalar RSUExampleScenario.node[71].veinsmobility 	totalCO2Emission 	708.62012013157
scalar RSUExampleScenario.node[72].veinsmobility 	startTime 	432.1
scalar RSUExampleScenario.node[72].veinsmobility 	totalTime 	226.9
scalar RSUExampleScenario.node[72].veinsmobility 	stopTime 	659.1
scalar RSUExampleScenario.node[72].veinsmobility 	minSpeed 	0.24940454259096
scalar RSUExampleScenario.node[72].veinsmobility 	maxSpeed 	18.999606802759
scalar RSUExampleScenario.node[72].veinsmobility 	totalDistance 	3409.9999553058
scalar RSUExampleScenario.node[72].veinsmobility 	totalCO2Emission 	705.0512566243
scalar RSUExampleScenario.node[73].veinsmobility 	startTime 	438.1
scalar RSUExampleScenario.node[73].veinsmobility 	totalTime 	226.9
scalar RSUExampleScenario.node[73].veinsmobility 	stopTime 	665.1
scalar RSUExampleScenario.node[73].veinsmobility 	minSpeed 	0.24954836542229
scalar RSUExampleScenario.node[73].veinsmobility 	maxSpeed 	18.99968550106
scalar RSUExampleScenario.node[73].veinsmobility 	totalDistance 	3409.4382034542
scalar RSUExampleScenario.node[73].veinsmobility 	totalCO2Emission 	704.85813416119
scalar RSUExampleScenario.node[74].veinsmobility 	startTime 	444.1
scalar RSUExampleScenario.node[74].veinsmobility 	totalTime 	227
scalar RSUExampleScenario.node[74].veinsmobility 	stopTime 	671.2
scalar RSUExampleScenario.node[74].veinsmobility 	minSpeed 	0.25434746533562
scalar RSUExampleScenario.node[74].veinsmobility 	maxSpeed 	18.999996964333
scalar RSUExampleScenario.node[74].veinsmobility 	totalDistance 	3409.6095278837
scalar RSUExampleScenario.node[74].veinsmobility 	totalCO2Emission 	705.34596714138
scalar RSUExampleScenario.node[75].veinsmobility 	startTime 	450.1
scalar RSUExampleScenario.node[75].veinsmobility 	totalTime 	226.9
scalar RSUExampleScenario.node[75].veinsmobility 	stopTime 	677.1
scalar RSUExampleScenario.node[75].veinsmobility 	minSpeed 	0.25271388891456
scalar RSUExampleScenario.node[75].veinsmobility 	maxSpeed 	18.999855281385
scalar RSUExampleScenario.node[75].veinsmobility 	totalDistance 	3409.675534652
scalar RSUExampleScenario.node[75].veinsmobility 	totalCO2Emission 	705.82804757402
scalar RSUExampleScenario.node[76].veinsmobility 	startTime 	456.1
scalar RSUExampleScenario.node[76].veinsmobility 	totalTime 	227.1
scalar RSUExampleScenario.node[76].veinsmobility 	stopTime 	683.3
scalar RSUExampleScenario.node[76].veinsmobility 	minSpeed 	0.2592248896074
scalar RSUExampleScenario.node[76].veinsmobility 	maxSpeed 	18.999927769452
scalar RSUExampleScenario.node[76].veinsmobility 	totalDistance 	3409.5981300669
scalar RSUExampleScenario.node[76].veinsmobility 	totalCO2Emission 	712.67340951644
scalar RSUExampleScenario.node[77].veinsmobility 	startTime 	462.1
scalar RSUExampleScenario.node[77].veinsmobility 	totalTime 	227
scalar RSUExampleScenario.node[77].veinsmobility 	stopTime 	689.2
scalar RSUExampleScenario.node[77].veinsmobility 	minSpeed 	0.25343609057204
scalar RSUExampleScenario.node[77].veinsmobility 	maxSpeed 	18.99972311012
scalar RSUExampleScenario.node[77].veinsmobility 	totalDistance 	3409.0867107389
scalar RSUExampleScenario.node[77].veinsmobility 	totalCO2Emission 	704.81678764274
scalar RSUExampleScenario.node[78].veinsmobility 	startTime 	468.1
scalar RSUExampleScenario.node[78].veinsmobility 	totalTime 	226.9
scalar RSUExampleScenario.node[78].veinsmobility 	stopTime 	695.1
scalar RSUExampleScenario.node[78].veinsmobility 	minSpeed 	0.25830728624971
scalar RSUExampleScenario.node[78].veinsmobility 	maxSpeed 	18.999916428856
scalar RSUExampleScenario.node[78].veinsmobility 	totalDistance 	3409.3868189956
scalar RSUExampleScenario.node[78].veinsmobility 	totalCO2Emission 	705.77756682776
scalar RSUExampleScenario.node[79].veinsmobility 	startTime 	474.1
scalar RSUExampleScenario.node[79].veinsmobility 	totalTime 	226.9
scalar RSUExampleScenario.node[79].veinsmobility 	stopTime 	701.1
scalar RSUExampleScenario.node[79].veinsmobility 	minSpeed 	0.25661183914309
scalar RSUExampleScenario.node[79].veinsmobility 	maxSpeed 	18.999709868634
scalar RSUExampleScenario.node[79].veinsmobility 	totalDistance 	3409.7158832945
scalar RSUExampleScenario.node[79].veinsmobility 	totalCO2Emission 	709.83851449223
scalar RSUExampleScenario.node[80].veinsmobility 	startTime 	480.1
scalar RSUExampleScenario.node[80].veinsmobility 	totalTime 	226.8
scalar RSUExampleScenario.node[80].veinsmobility 	stopTime 	707
scalar RSUExampleScenario.node[80].veinsmobility 	minSpeed 	0.25483691981621
scalar RSUExampleScenario.node[80].veinsmobility 	maxSpeed 	18.999691652725
scalar RSUExampleScenario.node[80].veinsmobility 	totalDistance 	3409.6103077111
scalar RSUExampleScenario.node[80].veinsmobility 	totalCO2Emission 	710.97920892078
scalar RSUExampleScenario.node[81].veinsmobility 	startTime 	486.1
scalar RSUExampleScenario.node[81].veinsmobility 	totalTime 	226.6
scalar RSUExampleScenario.node[81].veinsmobility 	stopTime 	712.8
scalar RSUExampleScenario.node[81].veinsmobility 	minSpeed 	0.25205758184404
scalar RSUExampleScenario.node[81].veinsmobility 	maxSpeed 	18.999376093559
scalar RSUExampleScenario.node[81].veinsmobility 	totalDistance 	3409.2318694608
scalar RSUExampleScenario.node[81].veinsmobility 	totalCO2Emission 	705.63445084182
scalar RSUExampleScenario.node[82].veinsmobility 	startTime 	492.1
scalar RSUExampleScenario.node[82].veinsmobility 	totalTime 	227.2
scalar RSUExampleScenario.node[82].veinsmobility 	stopTime 	719.4
scalar RSUExampleScenario.node[82].veinsmobility 	minSpeed 	0.25092836608645
scalar RSUExampleScenario.node[82].veinsmobility 	maxSpeed 	18.999751978451
scalar RSUExampleScenario.node[82].veinsmobility 	totalDistance 	3409.1423559204
scalar RSUExampleScenario.node[82].veinsmobility 	totalCO2Emission 	709.45263027195
scalar RSUExampleScenario.node[83].veinsmobility 	startTime 	498.1
scalar RSUExampleScenario.node[83].veinsmobility 	totalTime 	227.1
scalar RSUExampleScenario.node[83].veinsmobility 	stopTime 	725.3
scalar RSUExampleScenario.node[83].veinsmobility 	minSpeed 	0.25741378624085
scalar RSUExampleScenario.node[83].veinsmobility 	maxSpeed 	18.999900301287
scalar RSUExampleScenario.node[83].veinsmobility 	totalDistance 	3409.3837172066
scalar RSUExampleScenario.node[83].veinsmobility 	totalCO2Emission 	710.56861411071
scalar RSUExampleScenario.node[84].veinsmobility 	startTime 	504.1
scalar RSUExampleScenario.node[84].veinsmobility 	totalTime 	227.2
scalar RSUExampleScenario.node[84].veinsmobility 	stopTime 	731.4
scalar RSUExampleScenario.node[84].veinsmobility 	minSpeed 	0.25462561150664
scalar RSUExampleScenario.node[84].veinsmobility 	maxSpeed 	18.999861808312
scalar RSUExampleScenario.node[84].veinsmobility 	totalDistance 	3409.281673243
scalar RSUExampleScenario.node[84].veinsmobility 	totalCO2Emission 	705.53305982032
scalar RSUExampleScenario.node[85].veinsmobility 	startTime 	510.1
scalar RSUExampleScenario.node[85].veinsmobility 	totalTime 	226.6
scalar RSUExampleScenario.node[85].veinsmobility 	stopTime 	736.8
scalar RSUExampleScenario.node[85].veinsmobility 	minSpeed 	0.25346698457934
scalar RSUExampleScenario.node[85].veinsmobility 	maxSpeed 	18.999896944538
scalar RSUExampleScenario.node[85].veinsmobility 	totalDistance 	3408.9525636452
scalar RSUExampleScenario.node[85].veinsmobility 	totalCO2Emission 	708.25710110588
scalar RSUExampleScenario.node[86].veinsmobility 	startTime 	516.1
scalar RSUExampleScenario.node[86].veinsmobility 	totalTime 	226.7
scalar RSUExampleScenario.node[86].veinsmobility 	stopTime 	742.9
scalar RSUExampleScenario.node[86].veinsmobility 	minSpeed 	0.25490947002103
scalar RSUExampleScenario.node[86].veinsmobility 	maxSpeed 	18.999348456771
scalar RSUExampleScenario.node[86].veinsmobility 	totalDistance 	3409.8191495183
scalar RSUExampleScenario.node[86].veinsmobility 	totalCO2Emission 	709.58275308602
scalar RSUExampleScenario.node[87].veinsmobility 	startTime 	522.1
scalar RSUExampleScenario.node[87].veinsmobility 	totalTime 	226.7
scalar RSUExampleScenario.node[87].veinsmobility 	stopTime 	748.9
scalar RSUExampleScenario.node[87].veinsmobility 	minSpeed 	0.2504674896372
scalar RSUExampleScenario.node[87].veinsmobility 	maxSpeed 	18.999862066286
scalar RSUExampleScenario.node[87].veinsmobility 	totalDistance 	3409.0703606487
scalar RSUExampleScenario.node[87].veinsmobility 	totalCO2Emission 	702.21286671187
scalar RSUExampleScenario.node[88].veinsmobility 	startTime 	528.1
scalar RSUExampleScenario.node[88].veinsmobility 	totalTime 	227.3
scalar RSUExampleScenario.node[88].veinsmobility 	stopTime 	755.5
scalar RSUExampleScenario.node[88].veinsmobility 	minSpeed 	0.25546384357568
scalar RSUExampleScenario.node[88].veinsmobility 	maxSpeed 	18.999911265683
scalar RSUExampleScenario.node[88].veinsmobility 	totalDistance 	3409.2031389888
scalar RSUExampleScenario.node[88].veinsmobility 	totalCO2Emission 	708.29478751296
scalar RSUExampleScenario.node[89].veinsmobility 	startTime 	534.1
scalar RSUExampleScenario.node[89].veinsmobility 	totalTime 	227.1
scalar RSUExampleScenario.node[89].veinsmobility 	stopTime 	761.3
scalar RSUExampleScenario.node[89].veinsmobility 	minSpeed 	0.25401297165663
scalar RSUExampleScenario.node[89].veinsmobility 	maxSpeed 	18.999648169982
scalar RSUExampleScenario.node[89].veinsmobility 	totalDistance 	3409.747111201
scalar RSUExampleScenario.node[89].veinsmobility 	totalCO2Emission 	709.63332493831
scalar RSUExampleScenario.node[90].veinsmobility 	startTime 	540.1
scalar RSUExampleScenario.node[90].veinsmobility 	totalTime 	226.9
scalar RSUExampleScenario.node[90].veinsmobility 	stopTime 	767.1
scalar RSUExampleScenario.node[90].veinsmobility 	minSpeed 	0.24723454456544
scalar RSUExampleScenario.node[90].veinsmobility 	maxSpeed 	18.999958335969
scalar RSUExampleScenario.node[90].veinsmobility 	totalDistance 	3409.4169433305
scalar RSUExampleScenario.node[90].veinsmobility 	totalCO2Emission 	706.45177880621
scalar RSUExampleScenario.node[91].veinsmobility 	startTime 	546.1
scalar RSUExampleScenario.node[91].veinsmobility 	totalTime 	226.9
scalar RSUExampleScenario.node[91].veinsmobility 	stopTime 	773.1
scalar RSUExampleScenario.node[91].veinsmobility 	minSpeed 	0.25897700387426
scalar RSUExampleScenario.node[91].veinsmobility 	maxSpeed 	18.999990205311
scalar RSUExampleScenario.node[91].veinsmobility 	totalDistance 	3409.5229494299
scalar RSUExampleScenario.node[91].veinsmobility 	totalCO2Emission 	707.58136652167
scalar RSUExampleScenario.node[92].veinsmobility 	startTime 	552.1
scalar RSUExampleScenario.node[92].veinsmobility 	totalTime 	226.7
scalar RSUExampleScenario.node[92].veinsmobility 	stopTime 	778.9
scalar RSUExampleScenario.node[92].veinsmobility 	minSpeed 	0.24799397497717
scalar RSUExampleScenario.node[92].veinsmobility 	maxSpeed 	18.999341571047
scalar RSUExampleScenario.node[92].veinsmobility 	totalDistance 	3409.3304369145
scalar RSUExampleScenario.node[92].veinsmobility 	totalCO2Emission 	702.56683253608
scalar RSUExampleScenario.node[93].veinsmobility 	startTime 	558.1
scalar RSUExampleScenario.node[93].veinsmobility 	totalTime 	226.8
scalar RSUExampleScenario.node[93].veinsmobility 	stopTime 	785
scalar RSUExampleScenario.node[93].veinsmobility 	minSpeed 	0.24864516513003
scalar RSUExampleScenario.node[93].veinsmobility 	maxSpeed 	18.999965750324
scalar RSUExampleScenario.node[93].veinsmobility 	totalDistance 	3409.5932230136
scalar RSUExampleScenario.node[93].veinsmobility 	totalCO2Emission 	706.98643696035
scalar RSUExampleScenario.node[94].veinsmobility 	startTime 	564.1
scalar RSUExampleScenario.node[94].veinsmobility 	totalTime 	226.8
scalar RSUExampleScenario.node[94].veinsmobility 	stopTime 	791
scalar RSUExampleScenario.node[94].veinsmobility 	minSpeed 	0.24849113222375
scalar RSUExampleScenario.node[94].veinsmobility 	maxSpeed 	18.999783738586
scalar RSUExampleScenario.node[94].veinsmobility 	totalDistance 	3409.1106458697
scalar RSUExampleScenario.node[94].veinsmobility 	totalCO2Emission 	705.8959700559
scalar RSUExampleScenario.node[95].veinsmobility 	startTime 	570.1
scalar RSUExampleScenario.node[95].veinsmobility 	totalTime 	226.8
scalar RSUExampleScenario.node[95].veinsmobility 	stopTime 	797
scalar RSUExampleScenario.node[95].veinsmobility 	minSpeed 	0.25064716649032
scalar RSUExampleScenario.node[95].veinsmobility 	maxSpeed 	18.999962621189
scalar RSUExampleScenario.node[95].veinsmobility 	totalDistance 	3409.3251151189
scalar RSUExampleScenario.node[95].veinsmobility 	totalCO2Emission 	710.29919164812
scalar RSUExampleScenario.node[96].veinsmobility 	startTime 	576.1
scalar RSUExampleScenario.node[96].veinsmobility 	totalTime 	227.3
scalar RSUExampleScenario.node[96].veinsmobility 	stopTime 	803.5
scalar RSUExampleScenario.node[96].veinsmobility 	minSpeed 	0.24706816308154
scalar RSUExampleScenario.node[96].veinsmobility 	maxSpeed 	18.999604663569
scalar RSUExampleScenario.node[96].veinsmobility 	totalDistance 	3409.3756986912
scalar RSUExampleScenario.node[96].veinsmobility 	totalCO2Emission 	709.46473541227
scalar RSUExampleScenario.node[97].veinsmobility 	startTime 	582.1
scalar RSUExampleScenario.node[97].veinsmobility 	totalTime 	226.9
scalar RSUExampleScenario.node[97].veinsmobility 	stopTime 	809.1
scalar RSUExampleScenario.node[97].veinsmobility 	minSpeed 	0.24980303243082
scalar RSUExampleScenario.node[97].veinsmobility 	maxSpeed 	18.999973420654
scalar RSUExampleScenario.node[97].veinsmobility 	totalDistance 	3409.5458339606
scalar RSUExampleScenario.node[97].veinsmobility 	totalCO2Emission 	708.25866143588
scalar RSUExampleScenario.node[98].veinsmobility 	startTime 	588.1
scalar RSUExampleScenario.node[98].veinsmobility 	totalTime 	227.1
scalar RSUExampleScenario.node[98].veinsmobility 	stopTime 	815.3
scalar RSUExampleScenario.node[98].veinsmobility 	minSpeed 	0.25434774928261
scalar RSUExampleScenario.node[98].veinsmobility 	maxSpeed 	18.999842590352
scalar RSUExampleScenario.node[98].veinsmobility 	totalDistance 	3409.3216751869
scalar RSUExampleScenario.node[98].veinsmobility 	totalCO2Emission 	705.10394234612
scalar RSUExampleScenario.node[99].veinsmobility 	startTime 	594.1
scalar RSUExampleScenario.node[99].veinsmobility 	totalTime 	226.9
scalar RSUExampleScenario.node[99].veinsmobility 	stopTime 	821.1
scalar RSUExampleScenario.node[99].veinsmobility 	minSpeed 	0.25199082422
scalar RSUExampleScenario.node[99].veinsmobility 	maxSpeed 	18.999801528684
scalar RSUExampleScenario.node[99].veinsmobility 	totalDistance 	3409.253345422
scalar RSUExampleScenario.node[99].veinsmobility 	totalCO2Emission 	708.83027934698
scalar RSUExampleScenario.node[100].veinsmobility 	startTime 	600.1
scalar RSUExampleScenario.node[100].veinsmobility 	totalTime 	226.9
scalar RSUExampleScenario.node[100].veinsmobility 	stopTime 	827.1
scalar RSUExampleScenario.node[100].veinsmobility 	minSpeed 	0.25337917987979
scalar RSUExampleScenario.node[100].veinsmobility 	maxSpeed 	18.999824198345
scalar RSUExampleScenario.node[100].veinsmobility 	totalDistance 	3409.2362309317
scalar RSUExampleScenario.node[100].veinsmobility 	totalCO2Emission 	707.03328054857
scalar RSUExampleScenario.node[101].veinsmobility 	startTime 	606.1
scalar RSUExampleScenario.node[101].veinsmobility 	totalTime 	227.1
scalar RSUExampleScenario.node[101].veinsmobility 	stopTime 	833.3
scalar RSUExampleScenario.node[101].veinsmobility 	minSpeed 	0.25276586483582
scalar RSUExampleScenario.node[101].veinsmobility 	maxSpeed 	18.99996048775
scalar RSUExampleScenario.node[101].veinsmobility 	totalDistance 	3409.3864141777
scalar RSUExampleScenario.node[101].veinsmobility 	totalCO2Emission 	706.80263761801
scalar RSUExampleScenario.node[102].veinsmobility 	startTime 	612.1
scalar RSUExampleScenario.node[102].veinsmobility 	totalTime 	227.1
scalar RSUExampleScenario.node[102].veinsmobility 	stopTime 	839.3
scalar RSUExampleScenario.node[102].veinsmobility 	minSpeed 	0.25645706909942
scalar RSUExampleScenario.node[102].veinsmobility 	maxSpeed 	18.999688086219
scalar RSUExampleScenario.node[102].veinsmobility 	totalDistance 	3409.9116669152
scalar RSUExampleScenario.node[102].veinsmobility 	totalCO2Emission 	707.07108348955
scalar RSUExampleScenario.node[103].veinsmobility 	startTime 	618.1
scalar RSUExampleScenario.node[103].veinsmobility 	totalTime 	226.7
scalar RSUExampleScenario.node[103].veinsmobility 	stopTime 	844.9
scalar RSUExampleScenario.node[103].veinsmobility 	minSpeed 	0.25015897044353
scalar RSUExampleScenario.node[103].veinsmobility 	maxSpeed 	18.999979700868
scalar RSUExampleScenario.node[103].veinsmobility 	totalDistance 	3409.6257338943
scalar RSUExampleScenario.node[103].veinsmobility 	totalCO2Emission 	702.22915507815
scalar RSUExampleScenario.node[104].veinsmobility 	startTime 	624.1
scalar RSUExampleScenario.node[104].veinsmobility 	totalTime 	226.8
scalar RSUExampleScenario.node[104].veinsmobility 	stopTime 	851
scalar RSUExampleScenario.node[104].veinsmobility 	minSpeed 	0.24969131847285
scalar RSUExampleScenario.node[104].veinsmobility 	maxSpeed 	18.999859367835
scalar RSUExampleScenario.node[104].veinsmobility 	totalDistance 	3409.8132194093
scalar RSUExampleScenario.node[104].veinsmobility 	totalCO2Emission 	708.08679416984
scalar RSUExampleScenario.node[105].veinsmobility 	startTime 	630.1
scalar RSUExampleScenario.node[105].veinsmobility 	totalTime 	227.2
scalar RSUExampleScenario.node[105].veinsmobility 	stopTime 	857.4
scalar RSUExampleScenario.node[105].veinsmobility 	minSpeed 	0.25927969192271
scalar RSUExampleScenario.node[105].veinsmobility 	maxSpeed 	18.999671684664
scalar RSUExampleScenario.node[105].veinsmobility 	totalDistance 	3409.2680865659
scalar RSUExampleScenario.node[105].veinsmobility 	totalCO2Emission 	709.01962244783
scalar RSUExampleScenario.node[106].veinsmobility 	startTime 	636.1
scalar RSUExampleScenario.node[106].veinsmobility 	totalTime 	226.8
scalar RSUExampleScenario.node[106].veinsmobility 	stopTime 	863
scalar RSUExampleScenario.node[106].veinsmobility 	minSpeed 	0.25507381812599
scalar RSUExampleScenario.node[106].veinsmobility 	maxSpeed 	18.999892856877
scalar RSUExampleScenario.node[106].veinsmobility 	totalDistance 	3409.225075504
scalar RSUExampleScenario.node[106].veinsmobility 	totalCO2Emission 	711.47513287468
scalar RSUExampleScenario.node[107].veinsmobility 	startTime 	642.1
scalar RSUExampleScenario.node[107].veinsmobility 	totalTime 	226.8
scalar RSUExampleScenario.node[107].veinsmobility 	stopTime 	869
scalar RSUExampleScenario.node[107].veinsmobility 	minSpeed 	0.255533059187
scalar RSUExampleScenario.node[107].veinsmobility 	maxSpeed 	18.999808164304
scalar RSUExampleScenario.node[107].veinsmobility 	totalDistance 	3409.9094191686
scalar RSUExampleScenario.node[107].veinsmobility 	totalCO2Emission 	712.3309309744
scalar RSUExampleScenario.node[108].veinsmobility 	startTime 	648.1
scalar RSUExampleScenario.node[108].veinsmobility 	totalTime 	226.7
scalar RSUExampleScenario.node[108].veinsmobility 	stopTime 	874.9
scalar RSUExampleScenario.node[108].veinsmobility 	minSpeed 	0.25310851113568
scalar RSUExampleScenario.node[108].veinsmobility 	maxSpeed 	18.9999958334
scalar RSUExampleScenario.node[108].veinsmobility 	totalDistance 	3409.4400321407
scalar RSUExampleScenario.node[108].veinsmobility 	totalCO2Emission 	711.40734292709
scalar RSUExampleScenario.node[109].veinsmobility 	startTime 	654.1
scalar RSUExampleScenario.node[109].veinsmobility 	totalTime 	226.9
scalar RSUExampleScenario.node[109].veinsmobility 	stopTime 	881.1
scalar RSUExampleScenario.node[109].veinsmobility 	minSpeed 	0.24935926937847
scalar RSUExampleScenario.node[109].veinsmobility 	maxSpeed 	18.999576752705
scalar RSUExampleScenario.node[109].veinsmobility 	totalDistance 	3409.3903465194
scalar RSUExampleScenario.node[109].veinsmobility 	totalCO2Emission 	703.68267672399
scalar RSUExampleScenario.node[110].veinsmobility 	startTime 	660.1
scalar RSUExampleScenario.node[110].veinsmobility 	totalTime 	226.9
scalar RSUExampleScenario.node[110].veinsmobility 	stopTime 	887.1
scalar RSUExampleScenario.node[110].veinsmobility 	minSpeed 	0.25671288270457
scalar RSUExampleScenario.node[110].veinsmobility 	maxSpeed 	18.999983681107
scalar RSUExampleScenario.node[110].veinsmobility 	totalDistance 	3409.2292912049
scalar RSUExampleScenario.node[110].veinsmobility 	totalCO2Emission 	711.21611980593
scalar RSUExampleScenario.node[111].veinsmobility 	startTime 	666.1
scalar RSUExampleScenario.node[111].veinsmobility 	totalTime 	226.5
scalar RSUExampleScenario.node[111].veinsmobility 	stopTime 	892.7
scalar RSUExampleScenario.node[111].veinsmobility 	minSpeed 	0.25389787730062
scalar RSUExampleScenario.node[111].veinsmobility 	maxSpeed 	18.999918559964
scalar RSUExampleScenario.node[111].veinsmobility 	totalDistance 	3409.4610522633
scalar RSUExampleScenario.node[111].veinsmobility 	totalCO2Emission 	704.93501652694
scalar RSUExampleScenario.node[112].veinsmobility 	startTime 	672.1
scalar RSUExampleScenario.node[112].veinsmobility 	totalTime 	227.1
scalar RSUExampleScenario.node[112].veinsmobility 	stopTime 	899.3
scalar RSUExampleScenario.node[112].veinsmobility 	minSpeed 	0.255121110101
scalar RSUExampleScenario.node[112].veinsmobility 	maxSpeed 	18.999685774501
scalar RSUExampleScenario.node[112].veinsmobility 	totalDistance 	3409.5809845986
scalar RSUExampleScenario.node[112].veinsmobility 	totalCO2Emission 	707.06798947618
scalar RSUExampleScenario.node[113].veinsmobility 	startTime 	678.1
scalar RSUExampleScenario.node[113].veinsmobility 	totalTime 	227
scalar RSUExampleScenario.node[113].veinsmobility 	stopTime 	905.2
scalar RSUExampleScenario.node[113].veinsmobility 	minSpeed 	0.24975688480353
scalar RSUExampleScenario.node[113].veinsmobility 	maxSpeed 	18.9997076624
scalar RSUExampleScenario.node[113].veinsmobility 	totalDistance 	3410.0151948625
scalar RSUExampleScenario.node[113].veinsmobility 	totalCO2Emission 	704.29979972337
scalar RSUExampleScenario.node[114].veinsmobility 	startTime 	684.1
scalar RSUExampleScenario.node[114].veinsmobility 	totalTime 	227.2
scalar RSUExampleScenario.node[114].veinsmobility 	stopTime 	911.4
scalar RSUExampleScenario.node[114].veinsmobility 	minSpeed 	0.25692629342224
scalar RSUExampleScenario.node[114].veinsmobility 	maxSpeed 	18.999756451121
scalar RSUExampleScenario.node[114].veinsmobility 	totalDistance 	3409.6867124013
scalar RSUExampleScenario.node[114].veinsmobility 	totalCO2Emission 	709.43325264818
scalar RSUExampleScenario.node[115].veinsmobility 	startTime 	690.1
scalar RSUExampleScenario.node[115].veinsmobility 	totalTime 	226.8
scalar RSUExampleScenario.node[115].veinsmobility 	stopTime 	917
scalar RSUExampleScenario.node[115].veinsmobility 	minSpeed 	0.25318811572087
scalar RSUExampleScenario.node[115].veinsmobility 	maxSpeed 	18.998833701492
scalar RSUExampleScenario.node[115].veinsmobility 	totalDistance 	3409.2394164381
scalar RSUExampleScenario.node[115].veinsmobility 	totalCO2Emission 	706.27051485812
scalar RSUExampleScenario.node[116].veinsmobility 	startTime 	696.1
scalar RSUExampleScenario.node[116].veinsmobility 	totalTime 	226.9
scalar RSUExampleScenario.node[116].veinsmobility 	stopTime 	923.1
scalar RSUExampleScenario.node[116].veinsmobility 	minSpeed 	0.24930568594881
scalar RSUExampleScenario.node[116].veinsmobility 	maxSpeed 	18.999663563159
scalar RSUExampleScenario.node[116].veinsmobility 	totalDistance 	3409.7278018106
scalar RSUExampleScenario.node[116].veinsmobility 	totalCO2Emission 	708.84491986528
scalar RSUExampleScenario.node[117].veinsmobility 	startTime 	702.1
scalar RSUExampleScenario.node[117].veinsmobility 	totalTime 	226.8
scalar RSUExampleScenario.node[117].veinsmobility 	stopTime 	929
scalar RSUExampleScenario.node[117].veinsmobility 	minSpeed 	0.25724899544544
scalar RSUExampleScenario.node[117].veinsmobility 	maxSpeed 	18.999924978986
scalar RSUExampleScenario.node[117].veinsmobility 	totalDistance 	3409.7010780966
scalar RSUExampleScenario.node[117].veinsmobility 	totalCO2Emission 	707.0288923222
scalar RSUExampleScenario.node[118].veinsmobility 	startTime 	708.1
scalar RSUExampleScenario.node[118].veinsmobility 	totalTime 	226.8
scalar RSUExampleScenario.node[118].veinsmobility 	stopTime 	935
scalar RSUExampleScenario.node[118].veinsmobility 	minSpeed 	0.2574954593007
scalar RSUExampleScenario.node[118].veinsmobility 	maxSpeed 	18.999848486071
scalar RSUExampleScenario.node[118].veinsmobility 	totalDistance 	3409.6383017359
scalar RSUExampleScenario.node[118].veinsmobility 	totalCO2Emission 	705.61059446524
scalar RSUExampleScenario.node[119].veinsmobility 	startTime 	714.1
scalar RSUExampleScenario.node[119].veinsmobility 	totalTime 	226.7
scalar RSUExampleScenario.node[119].veinsmobility 	stopTime 	940.9
scalar RSUExampleScenario.node[119].veinsmobility 	minSpeed 	0.25439194424055
scalar RSUExampleScenario.node[119].veinsmobility 	maxSpeed 	18.999990111662
scalar RSUExampleScenario.node[119].veinsmobility 	totalDistance 	3409.7747205116
scalar RSUExampleScenario.node[119].veinsmobility 	totalCO2Emission 	702.32397684107
scalar RSUExampleScenario.node[120].veinsmobility 	startTime 	720.1
scalar RSUExampleScenario.node[120].veinsmobility 	totalTime 	226.9
scalar RSUExampleScenario.node[120].veinsmobility 	stopTime 	947.1
scalar RSUExampleScenario.node[120].veinsmobility 	minSpeed 	0.25038369610533
scalar RSUExampleScenario.node[120].veinsmobility 	maxSpeed 	18.999239715408
scalar RSUExampleScenario.node[120].veinsmobility 	totalDistance 	3409.2980022943
scalar RSUExampleScenario.node[120].veinsmobility 	totalCO2Emission 	711.96351992525
scalar RSUExampleScenario.node[121].veinsmobility 	startTime 	726.1
scalar RSUExampleScenario.node[121].veinsmobility 	totalTime 	226.9
scalar RSUExampleScenario.node[121].veinsmobility 	stopTime 	953.1
scalar RSUExampleScenario.node[121].veinsmobility 	minSpeed 	0.24809120860766
scalar RSUExampleScenario.node[121].veinsmobility 	maxSpeed 	18.999854437695
scalar RSUExampleScenario.node[121].veinsmobility 	totalDistance 	3409.7221374707
scalar RSUExampleScenario.node[121].veinsmobility 	totalCO2Emission 	706.91410174379
scalar RSUExampleScenario.node[122].veinsmobility 	startTime 	732.1
scalar RSUExampleScenario.node[122].veinsmobility 	totalTime 	226.8
scalar RSUExampleScenario.node[122].veinsmobility 	stopTime 	959
scalar RSUExampleScenario.node[122].veinsmobility 	minSpeed 	0.24838133961684
scalar RSUExampleScenario.node[122].veinsmobility 	maxSpeed 	18.999202253632
scalar RSUExampleScenario.node[122].veinsmobility 	totalDistance 	3409.5822170241
scalar RSUExampleScenario.node[122].veinsmobility 	totalCO2Emission 	708.56550845543
scalar RSUExampleScenario.node[123].veinsmobility 	startTime 	738.1
scalar RSUExampleScenario.node[123].veinsmobility 	totalTime 	226.7
scalar RSUExampleScenario.node[123].veinsmobility 	stopTime 	964.9
scalar RSUExampleScenario.node[123].veinsmobility 	minSpeed 	0.25988543068152
scalar RSUExampleScenario.node[123].veinsmobility 	maxSpeed 	18.999971323083
scalar RSUExampleScenario.node[123].veinsmobility 	totalDistance 	3409.2959563181
scalar RSUExampleScenario.node[123].veinsmobility 	totalCO2Emission 	704.28155878269
scalar RSUExampleScenario.node[124].veinsmobility 	startTime 	744.1
scalar RSUExampleScenario.node[124].veinsmobility 	totalTime 	227
scalar RSUExampleScenario.node[124].veinsmobility 	stopTime 	971.2
scalar RSUExampleScenario.node[124].veinsmobility 	minSpeed 	0.25498265678575
scalar RSUExampleScenario.node[124].veinsmobility 	maxSpeed 	18.99992268655
scalar RSUExampleScenario.node[124].veinsmobility 	totalDistance 	3409.6917888764
scalar RSUExampleScenario.node[124].veinsmobility 	totalCO2Emission 	706.94095714606
scalar RSUExampleScenario.node[125].veinsmobility 	startTime 	750.1
scalar RSUExampleScenario.node[125].veinsmobility 	totalTime 	227
scalar RSUExampleScenario.node[125].veinsmobility 	stopTime 	977.2
scalar RSUExampleScenario.node[125].veinsmobility 	minSpeed 	0.2479075984573
scalar RSUExampleScenario.node[125].veinsmobility 	maxSpeed 	18.9999763048
scalar RSUExampleScenario.node[125].veinsmobility 	totalDistance 	3409.4711514212
scalar RSUExampleScenario.node[125].veinsmobility 	totalCO2Emission 	708.9576429001
scalar RSUExampleScenario.node[126].veinsmobility 	startTime 	756.1
scalar RSUExampleScenario.node[126].veinsmobility 	totalTime 	226.9
scalar RSUExampleScenario.node[126].veinsmobility 	stopTime 	983.1
scalar RSUExampleScenario.node[126].veinsmobility 	minSpeed 	0.25481044066069
scalar RSUExampleScenario.node[126].veinsmobility 	maxSpeed 	18.999053730392
scalar RSUExampleScenario.node[126].veinsmobility 	totalDistance 	3409.4861101319
scalar RSUExampleScenario.node[126].veinsmobility 	totalCO2Emission 	705.05847099874
scalar RSUExampleScenario.node[127].veinsmobility 	startTime 	762.1
scalar RSUExampleScenario.node[127].veinsmobility 	totalTime 	226.9
scalar RSUExampleScenario.node[127].veinsmobility 	stopTime 	989.1
scalar RSUExampleScenario.node[127].veinsmobility 	minSpeed 	0.25197536415118
scalar RSUExampleScenario.node[127].veinsmobility 	maxSpeed 	18.999790413463
scalar RSUExampleScenario.node[127].veinsmobility 	totalDistance 	3409.7275316009
scalar RSUExampleScenario.node[127].veinsmobility 	totalCO2Emission 	712.06542540998
scalar RSUExampleScenario.node[128].veinsmobility 	startTime 	768.1
scalar RSUExampleScenario.node[128].veinsmobility 	totalTime 	227.2
scalar RSUExampleScenario.node[128].veinsmobility 	stopTime 	995.4
scalar RSUExampleScenario.node[128].veinsmobility 	minSpeed 	0.25866863746126
scalar RSUExampleScenario.node[128].veinsmobility 	maxSpeed 	18.99999790594
scalar RSUExampleScenario.node[128].veinsmobility 	totalDistance 	3409.9506978498
scalar RSUExampleScenario.node[128].veinsmobility 	totalCO2Emission 	705.24903887472
scalar RSUExampleScenario.node[129].veinsmobility 	startTime 	774.1
scalar RSUExampleScenario.node[129].veinsmobility 	totalTime 	226.7
scalar RSUExampleScenario.node[129].veinsmobility 	stopTime 	1000.9
scalar RSUExampleScenario.node[129].veinsmobility 	minSpeed 	0.24843653174443
scalar RSUExampleScenario.node[129].veinsmobility 	maxSpeed 	18.999990177373
scalar RSUExampleScenario.node[129].veinsmobility 	totalDistance 	3409.2992439363
scalar RSUExampleScenario.node[129].veinsmobility 	totalCO2Emission 	708.36113940629
scalar RSUExampleScenario.node[130].veinsmobility 	startTime 	780.1
scalar RSUExampleScenario.node[130].veinsmobility 	totalTime 	226.9
scalar RSUExampleScenario.node[130].veinsmobility 	stopTime 	1007.1
scalar RSUExampleScenario.node[130].veinsmobility 	minSpeed 	0.24803919983353
scalar RSUExampleScenario.node[130].veinsmobility 	maxSpeed 	18.999974780777
scalar RSUExampleScenario.node[130].veinsmobility 	totalDistance 	3409.723121994
scalar RSUExampleScenario.node[130].veinsmobility 	totalCO2Emission 	708.6687985252
scalar RSUExampleScenario.node[131].veinsmobility 	startTime 	786.1
scalar RSUExampleScenario.node[131].veinsmobility 	totalTime 	227.1
scalar RSUExampleScenario.node[131].veinsmobility 	stopTime 	1013.3
scalar RSUExampleScenario.node[131].veinsmobility 	minSpeed 	0.25525992816058
scalar RSUExampleScenario.node[131].veinsmobility 	maxSpeed 	18.999687952162
scalar RSUExampleScenario.node[131].veinsmobility 	totalDistance 	3409.7686187584
scalar RSUExampleScenario.node[131].veinsmobility 	totalCO2Emission 	709.26274750541
scalar RSUExampleScenario.node[132].veinsmobility 	startTime 	792.1
scalar RSUExampleScenario.node[132].veinsmobility 	totalTime 	226.8
scalar RSUExampleScenario.node[132].veinsmobility 	stopTime 	1019
scalar RSUExampleScenario.node[132].veinsmobility 	minSpeed 	0.25470454692421
scalar RSUExampleScenario.node[132].veinsmobility 	maxSpeed 	18.999994774899
scalar RSUExampleScenario.node[132].veinsmobility 	totalDistance 	3409.0902994748
scalar RSUExampleScenario.node[132].veinsmobility 	totalCO2Emission 	706.12213569332
scalar RSUExampleScenario.node[133].veinsmobility 	startTime 	798.1
scalar RSUExampleScenario.node[133].veinsmobility 	totalTime 	226.7
scalar RSUExampleScenario.node[133].veinsmobility 	stopTime 	1024.9
scalar RSUExampleScenario.node[133].veinsmobility 	minSpeed 	0.25331200194545
scalar RSUExampleScenario.node[133].veinsmobility 	maxSpeed 	18.999960141061
scalar RSUExampleScenario.node[133].veinsmobility 	totalDistance 	3409.160473534
scalar RSUExampleScenario.node[133].veinsmobility 	totalCO2Emission 	705.21653248486
scalar RSUExampleScenario.node[134].veinsmobility 	startTime 	804.1
scalar RSUExampleScenario.node[134].veinsmobility 	totalTime 	226.8
scalar RSUExampleScenario.node[134].veinsmobility 	stopTime 	1031
scalar RSUExampleScenario.node[134].veinsmobility 	minSpeed 	0.25552794660977
scalar RSUExampleScenario.node[134].veinsmobility 	maxSpeed 	18.999988526921
scalar RSUExampleScenario.node[134].veinsmobility 	totalDistance 	3409.1245110992
scalar RSUExampleScenario.node[134].veinsmobility 	totalCO2Emission 	708.26197287987
scalar RSUExampleScenario.node[135].veinsmobility 	startTime 	810.1
scalar RSUExampleScenario.node[135].veinsmobility 	totalTime 	227
scalar RSUExampleScenario.node[135].veinsmobility 	stopTime 	1037.2
scalar RSUExampleScenario.node[135].veinsmobility 	minSpeed 	0.25346752269869
scalar RSUExampleScenario.node[135].veinsmobility 	maxSpeed 	18.999923594377
scalar RSUExampleScenario.node[135].veinsmobility 	totalDistance 	3409.2825886152
scalar RSUExampleScenario.node[135].veinsmobility 	totalCO2Emission 	703.95567223043
scalar RSUExampleScenario.node[136].veinsmobility 	startTime 	816.1
scalar RSUExampleScenario.node[136].veinsmobility 	totalTime 	227.1
scalar RSUExampleScenario.node[136].veinsmobility 	stopTime 	1043.3
scalar RSUExampleScenario.node[136].veinsmobility 	minSpeed 	0.25641677315719
scalar RSUExampleScenario.node[136].veinsmobility 	maxSpeed 	18.999947982503
scalar RSUExampleScenario.node[136].veinsmobility 	totalDistance 	3409.3639099597
scalar RSUExampleScenario.node[136].veinsmobility 	totalCO2Emission 	704.9195252101
scalar RSUExampleScenario.node[137].veinsmobility 	startTime 	822.1
scalar RSUExampleScenario.node[137].veinsmobility 	totalTime 	226.8
scalar RSUExampleScenario.node[137].veinsmobility 	stopTime 	1049
scalar RSUExampleScenario.node[137].veinsmobility 	minSpeed 	0.25439512154646
scalar RSUExampleScenario.node[137].veinsmobility 	maxSpeed 	18.999961650586
scalar RSUExampleScenario.node[137].veinsmobility 	totalDistance 	3409.3032836275
scalar RSUExampleScenario.node[137].veinsmobility 	totalCO2Emission 	704.88976191702
scalar RSUExampleScenario.node[138].veinsmobility 	startTime 	828.1
scalar RSUExampleScenario.node[138].veinsmobility 	totalTime 	226.6
scalar RSUExampleScenario.node[138].veinsmobility 	stopTime 	1054.8
scalar RSUExampleScenario.node[138].veinsmobility 	minSpeed 	0.25804123295238
scalar RSUExampleScenario.node[138].veinsmobility 	maxSpeed 	18.999760799964
scalar RSUExampleScenario.node[138].veinsmobility 	totalDistance 	3409.9490174666
scalar RSUExampleScenario.node[138].veinsmobility 	totalCO2Emission 	706.0677791598
scalar RSUExampleScenario.node[139].veinsmobility 	startTime 	834.1
scalar RSUExampleScenario.node[139].veinsmobility 	totalTime 	227
scalar RSUExampleScenario.node[139].veinsmobility 	stopTime 	1061.2
scalar RSUExampleScenario.node[139].veinsmobility 	minSpeed 	0.24783969055302
scalar RSUExampleScenario.node[139].veinsmobility 	maxSpeed 	18.999979210889
scalar RSUExampleScenario.node[139].veinsmobility 	totalDistance 	3409.4727321259
scalar RSUExampleScenario.node[139].veinsmobility 	totalCO2Emission 	706.82824690822
scalar RSUExampleScenario.node[140].veinsmobility 	startTime 	840.1
scalar RSUExampleScenario.node[140].veinsmobility 	totalTime 	226.9
scalar RSUExampleScenario.node[140].veinsmobility 	stopTime 	1067.1
scalar RSUExampleScenario.node[140].veinsmobility 	minSpeed 	0.2552270735628
scalar RSUExampleScenario.node[140].veinsmobility 	maxSpeed 	18.999572144798
scalar RSUExampleScenario.node[140].veinsmobility 	totalDistance 	3409.7713155584
scalar RSUExampleScenario.node[140].veinsmobility 	totalCO2Emission 	709.28627228947
scalar RSUExampleScenario.node[141].veinsmobility 	startTime 	846.1
scalar RSUExampleScenario.node[141].veinsmobility 	totalTime 	226.8
scalar RSUExampleScenario.node[141].veinsmobility 	stopTime 	1073
scalar RSUExampleScenario.node[141].veinsmobility 	minSpeed 	0.25150869596261
scalar RSUExampleScenario.node[141].veinsmobility 	maxSpeed 	18.999465878508
scalar RSUExampleScenario.node[141].veinsmobility 	totalDistance 	3409.6691408947
scalar RSUExampleScenario.node[141].veinsmobility 	totalCO2Emission 	707.6148757479
scalar RSUExampleScenario.node[142].veinsmobility 	startTime 	852.1
scalar RSUExampleScenario.node[142].veinsmobility 	totalTime 	226.8
scalar RSUExampleScenario.node[142].veinsmobility 	stopTime 	1079
scalar RSUExampleScenario.node[142].veinsmobility 	minSpeed 	0.25981370103569
scalar RSUExampleScenario.node[142].veinsmobility 	maxSpeed 	18.999961045559
scalar RSUExampleScenario.node[142].veinsmobility 	totalDistance 	3409.6538874653
scalar RSUExampleScenario.node[142].veinsmobility 	totalCO2Emission 	708.10002295481
scalar RSUExampleScenario.node[143].veinsmobility 	startTime 	858.1
scalar RSUExampleScenario.node[143].veinsmobility 	totalTime 	227
scalar RSUExampleScenario.node[143].veinsmobility 	stopTime 	1085.2
scalar RSUExampleScenario.node[143].veinsmobility 	minSpeed 	0.25314865079825
scalar RSUExampleScenario.node[143].veinsmobility 	maxSpeed 	18.999872563314
scalar RSUExampleScenario.node[143].veinsmobility 	totalDistance 	3409.6175138361
scalar RSUExampleScenario.node[143].veinsmobility 	totalCO2Emission 	708.23258743984
scalar RSUExampleScenario.node[144].veinsmobility 	startTime 	864.1
scalar RSUExampleScenario.node[144].veinsmobility 	totalTime 	226.8
scalar RSUExampleScenario.node[144].veinsmobility 	stopTime 	1091
scalar RSUExampleScenario.node[144].veinsmobility 	minSpeed 	0.25590813699272
scalar RSUExampleScenario.node[144].veinsmobility 	maxSpeed 	18.999612225753
scalar RSUExampleScenario.node[144].veinsmobility 	totalDistance 	3409.9332736279
scalar RSUExampleScenario.node[144].veinsmobility 	totalCO2Emission 	704.45554749278
scalar RSUExampleScenario.node[145].veinsmobility 	startTime 	870.1
scalar RSUExampleScenario.node[145].veinsmobility 	totalTime 	226.9
scalar RSUExampleScenario.node[145].veinsmobility 	stopTime 	1097.1
scalar RSUExampleScenario.node[145].veinsmobility 	minSpeed 	0.25447319129668
scalar RSUExampleScenario.node[145].veinsmobility 	maxSpeed 	18.999857680001
scalar RSUExampleScenario.node[145].veinsmobility 	totalDistance 	3409.4235680526
scalar RSUExampleScenario.node[145].veinsmobility 	totalCO2Emission 	706.66602845227
scalar RSUExampleScenario.node[146].veinsmobility 	startTime 	876.1
scalar RSUExampleScenario.node[146].veinsmobility 	totalTime 	226.8
scalar RSUExampleScenario.node[146].veinsmobility 	stopTime 	1103
scalar RSUExampleScenario.node[146].veinsmobility 	minSpeed 	0.24886418212601
scalar RSUExampleScenario.node[146].veinsmobility 	maxSpeed 	18.999988312018
scalar RSUExampleScenario.node[146].veinsmobility 	totalDistance 	3409.275602874
scalar RSUExampleScenario.node[146].veinsmobility 	totalCO2Emission 	705.88757940482
scalar RSUExampleScenario.node[147].veinsmobility 	startTime 	882.1
scalar RSUExampleScenario.node[147].veinsmobility 	totalTime 	227
scalar RSUExampleScenario.node[147].veinsmobility 	stopTime 	1109.2
scalar RSUExampleScenario.node[147].veinsmobility 	minSpeed 	0.25158851657039
scalar RSUExampleScenario.node[147].veinsmobility 	maxSpeed 	18.999896980345
scalar RSUExampleScenario.node[147].veinsmobility 	totalDistance 	3409.5258503601
scalar RSUExampleScenario.node[147].veinsmobility 	totalCO2Emission 	706.98928461327
scalar RSUExampleScenario.node[148].veinsmobility 	startTime 	888.1
scalar RSUExampleScenario.node[148].veinsmobility 	totalTime 	227.1
scalar RSUExampleScenario.node[148].veinsmobility 	stopTime 	1115.3
scalar RSUExampleScenario.node[148].veinsmobility 	minSpeed 	0.24971203396865
scalar RSUExampleScenario.node[148].veinsmobility 	maxSpeed 	18.999677104298
scalar RSUExampleScenario.node[148].veinsmobility 	totalDistance 	3409.4751337276
scalar RSUExampleScenario.node[148].veinsmobility 	totalCO2Emission 	709.57091308881
scalar RSUExampleScenario.node[149].veinsmobility 	startTime 	894.1
scalar RSUExampleScenario.node[149].veinsmobility 	totalTime 	226.8
scalar RSUExampleScenario.node[149].veinsmobility 	stopTime 	1121
scalar RSUExampleScenario.node[149].veinsmobility 	minSpeed 	0.2519253348154
scalar RSUExampleScenario.node[149].veinsmobility 	maxSpeed 	18.999733240542
scalar RSUExampleScenario.node[149].veinsmobility 	totalDistance 	3409.6335556399
scalar RSUExampleScenario.node[149].veinsmobility 	totalCO2Emission 	707.44636606087
scalar RSUExampleScenario.node[150].veinsmobility 	startTime 	900.1
scalar RSUExampleScenario.node[150].veinsmobility 	totalTime 	227.2
scalar RSUExampleScenario.node[150].veinsmobility 	stopTime 	1127.4
scalar RSUExampleScenario.node[150].veinsmobility 	minSpeed 	0.25750523425522
scalar RSUExampleScenario.node[150].veinsmobility 	maxSpeed 	18.998297271098
scalar RSUExampleScenario.node[150].veinsmobility 	totalDistance 	3409.6001278854
scalar RSUExampleScenario.node[150].veinsmobility 	totalCO2Emission 	708.60776974314
scalar RSUExampleScenario.node[151].veinsmobility 	startTime 	906.1
scalar RSUExampleScenario.node[151].veinsmobility 	totalTime 	226.7
scalar RSUExampleScenario.node[151].veinsmobility 	stopTime 	1132.9
scalar RSUExampleScenario.node[151].veinsmobility 	minSpeed 	0.2521173578701
scalar RSUExampleScenario.node[151].veinsmobility 	maxSpeed 	18.999701386334
scalar RSUExampleScenario.node[151].veinsmobility 	totalDistance 	3409.4180696562
scalar RSUExampleScenario.node[151].veinsmobility 	totalCO2Emission 	708.57889878919
scalar RSUExampleScenario.node[152].veinsmobility 	startTime 	912.1
scalar RSUExampleScenario.node[152].veinsmobility 	totalTime 	226.9
scalar RSUExampleScenario.node[152].veinsmobility 	stopTime 	1139.1
scalar RSUExampleScenario.node[152].veinsmobility 	minSpeed 	0.25976605684124
scalar RSUExampleScenario.node[152].veinsmobility 	maxSpeed 	18.999832847966
scalar RSUExampleScenario.node[152].veinsmobility 	totalDistance 	3409.4980546894
scalar RSUExampleScenario.node[152].veinsmobility 	totalCO2Emission 	708.63869359723
[...]
scalar RSUExampleScenario.node[262].veinsmobility 	startTime 	1572.1
scalar RSUExampleScenario.node[262].veinsmobility 	totalTime 	227.2
scalar RSUExampleScenario.node[262].veinsmobility 	stopTime 	1799.4
scalar RSUExampleScenario.node[262].veinsmobility 	minSpeed 	0.24755261193984
scalar RSUExampleScenario.node[262].veinsmobility 	maxSpeed 	18.999858656507
scalar RSUExampleScenario.node[262].veinsmobility 	totalDistance 	3409.6512500422
scalar RSUExampleScenario.node[262].veinsmobility 	totalCO2Emission 	704.65532592808
scalar RSUExampleScenario.node[263].veinsmobility 	startTime 	1578.1
scalar RSUExampleScenario.node[263].veinsmobility 	totalTime 	226.8
scalar RSUExampleScenario.node[263].veinsmobility 	stopTime 	1805
scalar RSUExampleScenario.node[263].veinsmobility 	minSpeed 	0.25331223661616
scalar RSUExampleScenario.node[263].veinsmobility 	maxSpeed 	18.999821980307
scalar RSUExampleScenario.node[263].veinsmobility 	totalDistance 	3409.3173023434
scalar RSUExampleScenario.node[263].veinsmobility 	totalCO2Emission 	707.10200803103
scalar RSUExampleScenario.node[264].veinsmobility 	startTime 	1584.1
scalar RSUExampleScenario.node[264].veinsmobility 	totalTime 	226.9
scalar RSUExampleScenario.node[264].veinsmobility 	stopTime 	1811.1
scalar RSUExampleScenario.node[264].veinsmobility 	minSpeed 	0.24908905428182
scalar RSUExampleScenario.node[264].veinsmobility 	maxSpeed 	18.999297259597
scalar RSUExampleScenario.node[264].veinsmobility 	totalDistance 	3409.1991156655
scalar RSUExampleScenario.node[264].veinsmobility 	totalCO2Emission 	705.11052459977
scalar RSUExampleScenario.node[265].veinsmobility 	startTime 	1590.1
scalar RSUExampleScenario.node[265].veinsmobility 	totalTime 	227
scalar RSUExampleScenario.node[265].veinsmobility 	stopTime 	1817.2
scalar RSUExampleScenario.node[265].veinsmobility 	minSpeed 	0.25055781244533
scalar RSUExampleScenario.node[265].veinsmobility 	maxSpeed 	18.999920544333
scalar RSUExampleScenario.node[265].veinsmobility 	totalDistance 	3409.3373736615
scalar RSUExampleScenario.node[265].veinsmobility 	totalCO2Emission 	706.98707195834
scalar RSUExampleScenario.node[266].veinsmobility 	startTime 	1596.1
scalar RSUExampleScenario.node[266].veinsmobility 	totalTime 	226.8
scalar RSUExampleScenario.node[266].veinsmobility 	stopTime 	1823
scalar RSUExampleScenario.node[266].veinsmobility 	minSpeed 	0.25510950112762
scalar RSUExampleScenario.node[266].veinsmobility 	maxSpeed 	18.99955687572
scalar RSUExampleScenario.node[266].veinsmobility 	totalDistance 	3409.1401063325
scalar RSUExampleScenario.node[266].veinsmobility 	totalCO2Emission 	702.80489340968
scalar RSUExampleScenario.node[267].veinsmobility 	startTime 	1602.1
scalar RSUExampleScenario.node[267].veinsmobility 	totalTime 	226.9
scalar RSUExampleScenario.node[267].veinsmobility 	stopTime 	1829.1
scalar RSUExampleScenario.node[267].veinsmobility 	minSpeed 	0.24954787718458
scalar RSUExampleScenario.node[267].veinsmobility 	maxSpeed 	18.99995835528
scalar RSUExampleScenario.node[267].veinsmobility 	totalDistance 	3409.3934297342
scalar RSUExampleScenario.node[267].veinsmobility 	totalCO2Emission 	706.45523351181
scalar RSUExampleScenario.node[268].veinsmobility 	startTime 	1608.1
scalar RSUExampleScenario.node[268].veinsmobility 	totalTime 	227
scalar RSUExampleScenario.node[268].veinsmobility 	stopTime 	1835.2
scalar RSUExampleScenario.node[268].veinsmobility 	minSpeed 	0.25209660735726
scalar RSUExampleScenario.node[268].veinsmobility 	maxSpeed 	18.999978000412
scalar RSUExampleScenario.node[268].veinsmobility 	totalDistance 	3409.6709550555
scalar RSUExampleScenario.node[268].veinsmobility 	totalCO2Emission 	710.6080241693
scalar RSUExampleScenario.node[269].veinsmobility 	startTime 	1614.1
scalar RSUExampleScenario.node[269].veinsmobility 	totalTime 	226.7
scalar RSUExampleScenario.node[269].veinsmobility 	stopTime 	1840.9
scalar RSUExampleScenario.node[269].veinsmobility 	minSpeed 	0.24872788229305
scalar RSUExampleScenario.node[269].veinsmobility 	maxSpeed 	18.999736041843
scalar RSUExampleScenario.node[269].veinsmobility 	totalDistance 	3409.3511246908
scalar RSUExampleScenario.node[269].veinsmobility 	totalCO2Emission 	707.05137385932
scalar RSUExampleScenario.node[270].veinsmobility 	startTime 	1620.1
scalar RSUExampleScenario.node[270].veinsmobility 	totalTime 	226.8
scalar RSUExampleScenario.node[270].veinsmobility 	stopTime 	1847
scalar RSUExampleScenario.node[270].veinsmobility 	minSpeed 	0.25138414007402
scalar RSUExampleScenario.node[270].veinsmobility 	maxSpeed 	18.999220094702
scalar RSUExampleScenario.node[270].veinsmobility 	totalDistance 	3409.4210093057
scalar RSUExampleScenario.node[270].veinsmobility 	totalCO2Emission 	706.89428326758
scalar RSUExampleScenario.node[271].veinsmobility 	startTime 	1626.1
scalar RSUExampleScenario.node[271].veinsmobility 	totalTime 	227
scalar RSUExampleScenario.node[271].veinsmobility 	stopTime 	1853.2
scalar RSUExampleScenario.node[271].veinsmobility 	minSpeed 	0.25008342346922
scalar RSUExampleScenario.node[271].veinsmobility 	maxSpeed 	18.999899157006
scalar RSUExampleScenario.node[271].veinsmobility 	totalDistance 	3409.6952010125
scalar RSUExampleScenario.node[271].veinsmobility 	totalCO2Emission 	706.69561079347
scalar RSUExampleScenario.node[272].veinsmobility 	startTime 	1632.1
scalar RSUExampleScenario.node[272].veinsmobility 	totalTime 	227
scalar RSUExampleScenario.node[272].veinsmobility 	stopTime 	1859.2
scalar RSUExampleScenario.node[272].veinsmobility 	minSpeed 	0.25835452501965
scalar RSUExampleScenario.node[272].veinsmobility 	maxSpeed 	18.999664337989
scalar RSUExampleScenario.node[272].veinsmobility 	totalDistance 	3409.3324455044
scalar RSUExampleScenario.node[272].veinsmobility 	totalCO2Emission 	705.94700252559
scalar RSUExampleScenario.node[273].veinsmobility 	startTime 	1638.1
scalar RSUExampleScenario.node[273].veinsmobility 	totalTime 	226.7
scalar RSUExampleScenario.node[273].veinsmobility 	stopTime 	1864.9
scalar RSUExampleScenario.node[273].veinsmobility 	minSpeed 	0.25675088536274
scalar RSUExampleScenario.node[273].veinsmobility 	maxSpeed 	18.999173435182
scalar RSUExampleScenario.node[273].veinsmobility 	totalDistance 	3409.8758834869
scalar RSUExampleScenario.node[273].veinsmobility 	totalCO2Emission 	704.17323465948
scalar RSUExampleScenario.node[274].veinsmobility 	startTime 	1644.1
scalar RSUExampleScenario.node[274].veinsmobility 	totalTime 	226.8
scalar RSUExampleScenario.node[274].veinsmobility 	stopTime 	1871
scalar RSUExampleScenario.node[274].veinsmobility 	minSpeed 	0.25042248621536
scalar RSUExampleScenario.node[274].veinsmobility 	maxSpeed 	18.999907411085
scalar RSUExampleScenario.node[274].veinsmobility 	totalDistance 	3409.4305259544
scalar RSUExampleScenario.node[274].veinsmobility 	totalCO2Emission 	708.82024439088
scalar RSUExampleScenario.node[275].veinsmobility 	startTime 	1650.1
scalar RSUExampleScenario.node[275].veinsmobility 	totalTime 	227
scalar RSUExampleScenario.node[275].veinsmobility 	stopTime 	1877.2
scalar RSUExampleScenario.node[275].veinsmobility 	minSpeed 	0.25105025868001
scalar RSUExampleScenario.node[275].veinsmobility 	maxSpeed 	18.999037968672
scalar RSUExampleScenario.node[275].veinsmobility 	totalDistance 	3409.1467973754
scalar RSUExampleScenario.node[275].veinsmobility 	totalCO2Emission 	706.92473554732
scalar RSUExampleScenario.node[276].veinsmobility 	startTime 	1656.1
scalar RSUExampleScenario.node[276].veinsmobility 	totalTime 	226.7
scalar RSUExampleScenario.node[276].veinsmobility 	stopTime 	1882.9
scalar RSUExampleScenario.node[276].veinsmobility 	minSpeed 	0.25542693548952
scalar RSUExampleScenario.node[276].veinsmobility 	maxSpeed 	18.999530804695
scalar RSUExampleScenario.node[276].veinsmobility 	totalDistance 	3409.7069670557
scalar RSUExampleScenario.node[276].veinsmobility 	totalCO2Emission 	707.40122547087
scalar RSUExampleScenario.node[277].veinsmobility 	startTime 	1662.1
scalar RSUExampleScenario.node[277].veinsmobility 	totalTime 	227.1
scalar RSUExampleScenario.node[277].veinsmobility 	stopTime 	1889.3
scalar RSUExampleScenario.node[277].veinsmobility 	minSpeed 	0.25649788622907
scalar RSUExampleScenario.node[277].veinsmobility 	maxSpeed 	18.999668673484
scalar RSUExampleScenario.node[277].veinsmobility 	totalDistance 	3409.2705666053
scalar RSUExampleScenario.node[277].veinsmobility 	totalCO2Emission 	706.66594130736
scalar RSUExampleScenario.node[278].veinsmobility 	startTime 	1668.1
scalar RSUExampleScenario.node[278].veinsmobility 	totalTime 	226.7
scalar RSUExampleScenario.node[278].veinsmobility 	stopTime 	1894.9
scalar RSUExampleScenario.node[278].veinsmobility 	minSpeed 	0.25596339688124
scalar RSUExampleScenario.node[278].veinsmobility 	maxSpeed 	18.999632364949
scalar RSUExampleScenario.node[278].veinsmobility 	totalDistance 	3409.9348773842
scalar RSUExampleScenario.node[278].veinsmobility 	totalCO2Emission 	709.53714809737
scalar RSUExampleScenario.node[279].veinsmobility 	startTime 	1674.1
scalar RSUExampleScenario.node[279].veinsmobility 	totalTime 	226.9
scalar RSUExampleScenario.node[279].veinsmobility 	stopTime 	1901.1
scalar RSUExampleScenario.node[279].veinsmobility 	minSpeed 	0.2531949154234
scalar RSUExampleScenario.node[279].veinsmobility 	maxSpeed 	18.999716372406
scalar RSUExampleScenario.node[279].veinsmobility 	totalDistance 	3409.0991917769
scalar RSUExampleScenario.node[279].veinsmobility 	totalCO2Emission 	705.42484064712
scalar RSUExampleScenario.node[280].veinsmobility 	startTime 	1680.1
scalar RSUExampleScenario.node[280].veinsmobility 	totalTime 	226.6
scalar RSUExampleScenario.node[280].veinsmobility 	stopTime 	1906.8
scalar RSUExampleScenario.node[280].veinsmobility 	minSpeed 	0.25630996426218
scalar RSUExampleScenario.node[280].veinsmobility 	maxSpeed 	18.999907116275
scalar RSUExampleScenario.node[280].veinsmobility 	totalDistance 	3409.6757258203
scalar RSUExampleScenario.node[280].veinsmobility 	totalCO2Emission 	706.13786397462
scalar RSUExampleScenario.node[281].veinsmobility 	startTime 	1686.1
scalar RSUExampleScenario.node[281].veinsmobility 	totalTime 	226.7
scalar RSUExampleScenario.node[281].veinsmobility 	stopTime 	1912.9
scalar RSUExampleScenario.node[281].veinsmobility 	minSpeed 	0.25873262202344
scalar RSUExampleScenario.node[281].veinsmobility 	maxSpeed 	18.999853649063
scalar RSUExampleScenario.node[281].veinsmobility 	totalDistance 	3409.4410375512
scalar RSUExampleScenario.node[281].veinsmobility 	totalCO2Emission 	708.8238088313
scalar RSUExampleScenario.node[282].veinsmobility 	startTime 	1692.1
scalar RSUExampleScenario.node[282].veinsmobility 	totalTime 	227.2
scalar RSUExampleScenario.node[282].veinsmobility 	stopTime 	1919.4
scalar RSUExampleScenario.node[282].veinsmobility 	minSpeed 	0.25100181143056
scalar RSUExampleScenario.node[282].veinsmobility 	maxSpeed 	18.999961553183
scalar RSUExampleScenario.node[282].veinsmobility 	totalDistance 	3409.3989687303
scalar RSUExampleScenario.node[282].veinsmobility 	totalCO2Emission 	710.02867342535
scalar RSUExampleScenario.node[283].veinsmobility 	startTime 	1698.1
scalar RSUExampleScenario.node[283].veinsmobility 	totalTime 	227
scalar RSUExampleScenario.node[283].veinsmobility 	stopTime 	1925.2
scalar RSUExampleScenario.node[283].veinsmobility 	minSpeed 	0.25265916569554
scalar RSUExampleScenario.node[283].veinsmobility 	maxSpeed 	18.999831224179
scalar RSUExampleScenario.node[283].veinsmobility 	totalDistance 	3409.7970217082
scalar RSUExampleScenario.node[283].veinsmobility 	totalCO2Emission 	706.84108944774
scalar RSUExampleScenario.node[284].veinsmobility 	startTime 	1704.1
scalar RSUExampleScenario.node[284].veinsmobility 	totalTime 	226.7
scalar RSUExampleScenario.node[284].veinsmobility 	stopTime 	1930.9
scalar RSUExampleScenario.node[284].veinsmobility 	minSpeed 	0.25993152231304
scalar RSUExampleScenario.node[284].veinsmobility 	maxSpeed 	18.999834095975
scalar RSUExampleScenario.node[284].veinsmobility 	totalDistance 	3409.0856516797
scalar RSUExampleScenario.node[284].veinsmobility 	totalCO2Emission 	708.31978032932
scalar RSUExampleScenario.node[285].veinsmobility 	startTime 	1710.1
scalar RSUExampleScenario.node[285].veinsmobility 	totalTime 	227.1
scalar RSUExampleScenario.node[285].veinsmobility 	stopTime 	1937.3
scalar RSUExampleScenario.node[285].veinsmobility 	minSpeed 	0.25494951550779
scalar RSUExampleScenario.node[285].veinsmobility 	maxSpeed 	18.999971735515
scalar RSUExampleScenario.node[285].veinsmobility 	totalDistance 	3409.3731660533
scalar RSUExampleScenario.node[285].veinsmobility 	totalCO2Emission 	709.57311305435
scalar RSUExampleScenario.node[286].veinsmobility 	startTime 	1716.1
scalar RSUExampleScenario.node[286].veinsmobility 	totalTime 	226.8
scalar RSUExampleScenario.node[286].veinsmobility 	stopTime 	1943
scalar RSUExampleScenario.node[286].veinsmobility 	minSpeed 	0.25139868878899
scalar RSUExampleScenario.node[286].veinsmobility 	maxSpeed 	18.999985953295
scalar RSUExampleScenario.node[286].veinsmobility 	totalDistance 	3409.1814052275
scalar RSUExampleScenario.node[286].veinsmobility 	totalCO2Emission 	701.69192759482
scalar RSUExampleScenario.node[287].veinsmobility 	startTime 	1722.1
scalar RSUExampleScenario.node[287].veinsmobility 	totalTime 	226.9
scalar RSUExampleScenario.node[287].veinsmobility 	stopTime 	1949.1
scalar RSUExampleScenario.node[287].veinsmobility 	minSpeed 	0.24755162264896
scalar RSUExampleScenario.node[287].veinsmobility 	maxSpeed 	18.999877582805
scalar RSUExampleScenario.node[287].veinsmobility 	totalDistance 	3409.9253924473
scalar RSUExampleScenario.node[287].veinsmobility 	totalCO2Emission 	707.53388685274
scalar RSUExampleScenario.node[288].veinsmobility 	startTime 	1728.1
scalar RSUExampleScenario.node[288].veinsmobility 	totalTime 	226.7
scalar RSUExampleScenario.node[288].veinsmobility 	stopTime 	1954.9
scalar RSUExampleScenario.node[288].veinsmobility 	minSpeed 	0.25570353060192
scalar RSUExampleScenario.node[288].veinsmobility 	maxSpeed 	18.99926055776
scalar RSUExampleScenario.node[288].veinsmobility 	totalDistance 	3409.4133197245
scalar RSUExampleScenario.node[288].veinsmobility 	totalCO2Emission 	705.51295769394
scalar RSUExampleScenario.node[289].veinsmobility 	startTime 	1734.1
scalar RSUExampleScenario.node[289].veinsmobility 	totalTime 	226.7
scalar RSUExampleScenario.node[289].veinsmobility 	stopTime 	1960.9
scalar RSUExampleScenario.node[289].veinsmobility 	minSpeed 	0.25852802117169
scalar RSUExampleScenario.node[289].veinsmobility 	maxSpeed 	18.999902678474
scalar RSUExampleScenario.node[289].veinsmobility 	totalDistance 	3409.5372435711
scalar RSUExampleScenario.node[289].veinsmobility 	totalCO2Emission 	707.37667212543
scalar RSUExampleScenario.node[290].veinsmobility 	startTime 	1740.1
scalar RSUExampleScenario.node[290].veinsmobility 	totalTime 	226.7
scalar RSUExampleScenario.node[290].veinsmobility 	stopTime 	1966.9
scalar RSUExampleScenario.node[290].veinsmobility 	minSpeed 	0.25625322637893
scalar RSUExampleScenario.node[290].veinsmobility 	maxSpeed 	18.999326120028
scalar RSUExampleScenario.node[290].veinsmobility 	totalDistance 	3409.5952391745
scalar RSUExampleScenario.node[290].veinsmobility 	totalCO2Emission 	710.32671349347
scalar RSUExampleScenario.node[291].veinsmobility 	startTime 	1746.1
scalar RSUExampleScenario.node[291].veinsmobility 	totalTime 	227
scalar RSUExampleScenario.node[291].veinsmobility 	stopTime 	1973.2
scalar RSUExampleScenario.node[291].veinsmobility 	minSpeed 	0.2596456232341
scalar RSUExampleScenario.node[291].veinsmobility 	maxSpeed 	18.99983369435
scalar RSUExampleScenario.node[291].veinsmobility 	totalDistance 	3409.27772046
scalar RSUExampleScenario.node[291].veinsmobility 	totalCO2Emission 	706.29462351836
scalar RSUExampleScenario.node[292].veinsmobility 	startTime 	1752.1
scalar RSUExampleScenario.node[292].veinsmobility 	totalTime 	226.8
scalar RSUExampleScenario.node[292].veinsmobility 	stopTime 	1979
scalar RSUExampleScenario.node[292].veinsmobility 	minSpeed 	0.25140733444504
scalar RSUExampleScenario.node[292].veinsmobility 	maxSpeed 	18.999796715106
scalar RSUExampleScenario.node[292].veinsmobility 	totalDistance 	3409.3819148968
scalar RSUExampleScenario.node[292].veinsmobility 	totalCO2Emission 	706.91180956252
scalar RSUExampleScenario.node[293].veinsmobility 	startTime 	1758.1
scalar RSUExampleScenario.node[293].veinsmobility 	totalTime 	226.7
scalar RSUExampleScenario.node[293].veinsmobility 	stopTime 	1984.9
scalar RSUExampleScenario.node[293].veinsmobility 	minSpeed 	0.25897039151844
scalar RSUExampleScenario.node[293].veinsmobility 	maxSpeed 	18.9996730983
scalar RSUExampleScenario.node[293].veinsmobility 	totalDistance 	3409.7089938367
scalar RSUExampleScenario.node[293].veinsmobility 	totalCO2Emission 	708.74365576877
scalar RSUExampleScenario.node[294].veinsmobility 	startTime 	1764.1
scalar RSUExampleScenario.node[294].veinsmobility 	totalTime 	227
scalar RSUExampleScenario.node[294].veinsmobility 	stopTime 	1991.2
scalar RSUExampleScenario.node[294].veinsmobility 	minSpeed 	0.24919069099892
scalar RSUExampleScenario.node[294].veinsmobility 	maxSpeed 	18.99988781299
scalar RSUExampleScenario.node[294].veinsmobility 	totalDistance 	3409.1660063225
scalar RSUExampleScenario.node[294].veinsmobility 	totalCO2Emission 	712.0756224072
scalar RSUExampleScenario.node[295].veinsmobility 	startTime 	1770.1
scalar RSUExampleScenario.node[295].veinsmobility 	totalTime 	226.8
scalar RSUExampleScenario.node[295].veinsmobility 	stopTime 	1997
scalar RSUExampleScenario.node[295].veinsmobility 	minSpeed 	0.24846258263523
scalar RSUExampleScenario.node[295].veinsmobility 	maxSpeed 	18.999395609659
scalar RSUExampleScenario.node[295].veinsmobility 	totalDistance 	3409.7615511494
scalar RSUExampleScenario.node[295].veinsmobility 	totalCO2Emission 	706.00848026496
scalar RSUExampleScenario.node[296].veinsmobility 	startTime 	1776.1
scalar RSUExampleScenario.node[296].veinsmobility 	totalTime 	223.8
scalar RSUExampleScenario.node[296].veinsmobility 	stopTime 	2000
scalar RSUExampleScenario.node[296].veinsmobility 	minSpeed 	0.24987613544101
scalar RSUExampleScenario.node[296].veinsmobility 	maxSpeed 	18.999709565137
scalar RSUExampleScenario.node[296].veinsmobility 	totalDistance 	3389.9268904392
scalar RSUExampleScenario.node[296].veinsmobility 	totalCO2Emission 	689.96816273764
scalar RSUExampleScenario.node[297].veinsmobility 	startTime 	1782.1
scalar RSUExampleScenario.node[297].veinsmobility 	totalTime 	217.8
scalar RSUExampleScenario.node[297].veinsmobility 	stopTime 	2000
scalar RSUExampleScenario.node[297].veinsmobility 	minSpeed 	0.25800918091321
scalar RSUExampleScenario.node[297].veinsmobility 	maxSpeed 	18.999948380012
scalar RSUExampleScenario.node[297].veinsmobility 	totalDistance 	3323.9552544682
scalar RSUExampleScenario.node[297].veinsmobility 	totalCO2Emission 	683.7692887582
scalar RSUExampleScenario.node[298].veinsmobility 	startTime 	1788.1
scalar RSUExampleScenario.node[298].veinsmobility 	totalTime 	211.8
scalar RSUExampleScenario.node[298].veinsmobility 	stopTime 	2000
scalar RSUExampleScenario.node[298].veinsmobility 	minSpeed 	0.25978053518618
scalar RSUExampleScenario.node[298].veinsmobility 	maxSpeed 	18.999685760911
scalar RSUExampleScenario.node[298].veinsmobility 	totalDistance 	3241.9456345433
scalar RSUExampleScenario.node[298].veinsmobility 	totalCO2Emission 	669.18643215867
scalar RSUExampleScenario.node[299].veinsmobility 	startTime 	1794.1
scalar RSUExampleScenario.node[299].veinsmobility 	totalTime 	205.8
scalar RSUExampleScenario.node[299].veinsmobility 	stopTime 	2000
scalar RSUExampleScenario.node[299].veinsmobility 	minSpeed 	0.25940140461246
scalar RSUExampleScenario.node[299].veinsmobility 	maxSpeed 	18.999860465291
scalar RSUExampleScenario.node[299].veinsmobility 	totalDistance 	3161.2198862813
scalar RSUExampleScenario.node[299].veinsmobility 	totalCO2Emission 	651.08962581089
