version 2
run statistic3-808-20150325-04:49:27-20184
attr c 17
attr configname statistic3
attr datetime 20150325-04:49:27
attr experiment statistic3
attr inifile omnetpp.ini
attr iterationvars "$p=1/10, $c=17"
attr iterationvars2 "$p=1/10, $c=17, $repetition=8"
attr measurement "$p=1/10, $c=17"
attr network RSUExampleScenario
attr p 1/10
attr processid 20184
attr repetition 8
attr replication #8
attr resultdir results
attr runnumber 808
attr seedset 808

scalar . 	c 	17
scalar RSUExampleScenario.rsu[0].appl 	NumberofCH 	9
scalar RSUExampleScenario.rsu[0].appl 	NumberofON 	70
scalar RSUExampleScenario.rsu[0].appl 	NumberofFN 	21
scalar RSUExampleScenario.rsu[0].appl 	meanClusterNodes 	7.7777777777778
scalar RSUExampleScenario.rsu[0].appl 	varClusterNodes 	6.0512216907512
scalar RSUExampleScenario.rsu[0].appl 	sumCHutility 	306.75082269246
scalar RSUExampleScenario.rsu[0].appl 	meanCHutility 	34.083424743607
scalar RSUExampleScenario.rsu[0].appl 	varCHutility 	12.378723832178
scalar RSUExampleScenario.rsu[0].appl 	sumDiffCHutility 	-0.53769882043366
scalar RSUExampleScenario.rsu[0].appl 	meanDiffCHutility 	-0.059744313381518
scalar RSUExampleScenario.rsu[0].appl 	varDiffCHutility 	12.030545828671
scalar RSUExampleScenario.rsu[0].appl 	expectedCHutility 	306.21312387203
scalar RSUExampleScenario.rsu[0].appl 	meanExpectedCHutility 	34.023680430225
scalar RSUExampleScenario.rsu[0].appl 	varExpectedCHutility 	0.7185277691652
scalar RSUExampleScenario.node[0].veinsmobility 	startTime 	0.1
scalar RSUExampleScenario.node[0].veinsmobility 	totalTime 	349.9
scalar RSUExampleScenario.node[0].veinsmobility 	stopTime 	350
scalar RSUExampleScenario.node[0].veinsmobility 	minSpeed 	0
scalar RSUExampleScenario.node[0].veinsmobility 	maxSpeed 	13.999871941882
scalar RSUExampleScenario.node[0].veinsmobility 	totalDistance 	3132.81456684
scalar RSUExampleScenario.node[0].veinsmobility 	totalCO2Emission 	741.85486063503
scalar RSUExampleScenario.node[1].veinsmobility 	startTime 	2.5
scalar RSUExampleScenario.node[1].veinsmobility 	totalTime 	347.5
scalar RSUExampleScenario.node[1].veinsmobility 	stopTime 	350
scalar RSUExampleScenario.node[1].veinsmobility 	minSpeed 	0
scalar RSUExampleScenario.node[1].veinsmobility 	maxSpeed 	13.99997518437
scalar RSUExampleScenario.node[1].veinsmobility 	totalDistance 	3080.723097601
scalar RSUExampleScenario.node[1].veinsmobility 	totalCO2Emission 	731.29400404334
scalar RSUExampleScenario.node[10].veinsmobility 	startTime 	24.2
scalar RSUExampleScenario.node[10].veinsmobility 	totalTime 	325.8
scalar RSUExampleScenario.node[10].veinsmobility 	stopTime 	350
scalar RSUExampleScenario.node[10].veinsmobility 	minSpeed 	0
scalar RSUExampleScenario.node[10].veinsmobility 	maxSpeed 	13.999967332794
scalar RSUExampleScenario.node[10].veinsmobility 	totalDistance 	2790.1768713543
scalar RSUExampleScenario.node[10].veinsmobility 	totalCO2Emission 	657.66014083729
scalar RSUExampleScenario.node[11].veinsmobility 	startTime 	26.6
scalar RSUExampleScenario.node[11].veinsmobility 	totalTime 	323.4
scalar RSUExampleScenario.node[11].veinsmobility 	stopTime 	350
scalar RSUExampleScenario.node[11].veinsmobility 	minSpeed 	0
scalar RSUExampleScenario.node[11].veinsmobility 	maxSpeed 	13.9999625671
scalar RSUExampleScenario.node[11].veinsmobility 	totalDistance 	2756.6139107746
scalar RSUExampleScenario.node[11].veinsmobility 	totalCO2Emission 	656.18877099333
scalar RSUExampleScenario.node[12].veinsmobility 	startTime 	29
scalar RSUExampleScenario.node[12].veinsmobility 	totalTime 	321
scalar RSUExampleScenario.node[12].veinsmobility 	stopTime 	350
scalar RSUExampleScenario.node[12].veinsmobility 	minSpeed 	0
scalar RSUExampleScenario.node[12].veinsmobility 	maxSpeed 	13.999932677436
scalar RSUExampleScenario.node[12].veinsmobility 	totalDistance 	2719.3557819899
scalar RSUExampleScenario.node[12].veinsmobility 	totalCO2Emission 	645.13239592684
scalar RSUExampleScenario.node[13].veinsmobility 	startTime 	31.4
scalar RSUExampleScenario.node[13].veinsmobility 	totalTime 	318.6
scalar RSUExampleScenario.node[13].veinsmobility 	stopTime 	350
scalar RSUExampleScenario.node[13].veinsmobility 	minSpeed 	0
scalar RSUExampleScenario.node[13].veinsmobility 	maxSpeed 	13.999965773085
scalar RSUExampleScenario.node[13].veinsmobility 	totalDistance 	2684.1447731203
scalar RSUExampleScenario.node[13].veinsmobility 	totalCO2Emission 	640.60554135839
scalar RSUExampleScenario.node[14].veinsmobility 	startTime 	33.8
scalar RSUExampleScenario.node[14].veinsmobility 	totalTime 	316.2
scalar RSUExampleScenario.node[14].veinsmobility 	stopTime 	350
scalar RSUExampleScenario.node[14].veinsmobility 	minSpeed 	0
scalar RSUExampleScenario.node[14].veinsmobility 	maxSpeed 	13.999966986559
scalar RSUExampleScenario.node[14].veinsmobility 	totalDistance 	2648.345221185
scalar RSUExampleScenario.node[14].veinsmobility 	totalCO2Emission 	636.911318194
scalar RSUExampleScenario.node[15].veinsmobility 	startTime 	36.2
scalar RSUExampleScenario.node[15].veinsmobility 	totalTime 	313.8
scalar RSUExampleScenario.node[15].veinsmobility 	stopTime 	350
scalar RSUExampleScenario.node[15].veinsmobility 	minSpeed 	0
scalar RSUExampleScenario.node[15].veinsmobility 	maxSpeed 	13.999899490348
scalar RSUExampleScenario.node[15].veinsmobility 	totalDistance 	2619.4923313087
scalar RSUExampleScenario.node[15].veinsmobility 	totalCO2Emission 	629.40733344512
scalar RSUExampleScenario.node[16].veinsmobility 	startTime 	38.6
scalar RSUExampleScenario.node[16].veinsmobility 	totalTime 	311.4
scalar RSUExampleScenario.node[16].veinsmobility 	stopTime 	350
scalar RSUExampleScenario.node[16].veinsmobility 	minSpeed 	0
scalar RSUExampleScenario.node[16].veinsmobility 	maxSpeed 	13.999920215653
scalar RSUExampleScenario.node[16].veinsmobility 	totalDistance 	2579.5710401653
scalar RSUExampleScenario.node[16].veinsmobility 	totalCO2Emission 	625.68361810131
scalar RSUExampleScenario.node[17].veinsmobility 	startTime 	41
scalar RSUExampleScenario.node[17].veinsmobility 	totalTime 	309
scalar RSUExampleScenario.node[17].veinsmobility 	stopTime 	350
scalar RSUExampleScenario.node[17].veinsmobility 	minSpeed 	0
scalar RSUExampleScenario.node[17].veinsmobility 	maxSpeed 	13.999878003318
scalar RSUExampleScenario.node[17].veinsmobility 	totalDistance 	2542.6047260417
scalar RSUExampleScenario.node[17].veinsmobility 	totalCO2Emission 	621.00914271728
scalar RSUExampleScenario.node[18].veinsmobility 	startTime 	43.4
scalar RSUExampleScenario.node[18].veinsmobility 	totalTime 	306.6
scalar RSUExampleScenario.node[18].veinsmobility 	stopTime 	350
scalar RSUExampleScenario.node[18].veinsmobility 	minSpeed 	0
scalar RSUExampleScenario.node[18].veinsmobility 	maxSpeed 	13.999991987702
scalar RSUExampleScenario.node[18].veinsmobility 	totalDistance 	2505.41406309
scalar RSUExampleScenario.node[18].veinsmobility 	totalCO2Emission 	616.48005605433
scalar RSUExampleScenario.node[19].veinsmobility 	startTime 	45.8
scalar RSUExampleScenario.node[19].veinsmobility 	totalTime 	304.2
scalar RSUExampleScenario.node[19].veinsmobility 	stopTime 	350
scalar RSUExampleScenario.node[19].veinsmobility 	minSpeed 	0
scalar RSUExampleScenario.node[19].veinsmobility 	maxSpeed 	13.999964576017
scalar RSUExampleScenario.node[19].veinsmobility 	totalDistance 	2474.846874137
scalar RSUExampleScenario.node[19].veinsmobility 	totalCO2Emission 	611.22048253356
scalar RSUExampleScenario.node[2].veinsmobility 	startTime 	4.9
scalar RSUExampleScenario.node[2].veinsmobility 	totalTime 	345.1
scalar RSUExampleScenario.node[2].veinsmobility 	stopTime 	350
scalar RSUExampleScenario.node[2].veinsmobility 	minSpeed 	0
scalar RSUExampleScenario.node[2].veinsmobility 	maxSpeed 	13.999890229465
scalar RSUExampleScenario.node[2].veinsmobility 	totalDistance 	3035.7251913683
scalar RSUExampleScenario.node[2].veinsmobility 	totalCO2Emission 	725.08554575148
scalar RSUExampleScenario.node[20].veinsmobility 	startTime 	48.3
scalar RSUExampleScenario.node[20].veinsmobility 	totalTime 	301.7
scalar RSUExampleScenario.node[20].veinsmobility 	stopTime 	350
scalar RSUExampleScenario.node[20].veinsmobility 	minSpeed 	0
scalar RSUExampleScenario.node[20].veinsmobility 	maxSpeed 	13.99999652345
scalar RSUExampleScenario.node[20].veinsmobility 	totalDistance 	2437.9476805861
scalar RSUExampleScenario.node[20].veinsmobility 	totalCO2Emission 	601.24141105647
scalar RSUExampleScenario.node[21].veinsmobility 	startTime 	50.7
scalar RSUExampleScenario.node[21].veinsmobility 	totalTime 	299.3
scalar RSUExampleScenario.node[21].veinsmobility 	stopTime 	350
scalar RSUExampleScenario.node[21].veinsmobility 	minSpeed 	0
scalar RSUExampleScenario.node[21].veinsmobility 	maxSpeed 	13.999946508603
scalar RSUExampleScenario.node[21].veinsmobility 	totalDistance 	2408.0199007436
scalar RSUExampleScenario.node[21].veinsmobility 	totalCO2Emission 	597.52781645142
scalar RSUExampleScenario.node[22].veinsmobility 	startTime 	53.1
scalar RSUExampleScenario.node[22].veinsmobility 	totalTime 	296.9
scalar RSUExampleScenario.node[22].veinsmobility 	stopTime 	350
scalar RSUExampleScenario.node[22].veinsmobility 	minSpeed 	0
scalar RSUExampleScenario.node[22].veinsmobility 	maxSpeed 	13.999956042473
scalar RSUExampleScenario.node[22].veinsmobility 	totalDistance 	2371.0446008412
scalar RSUExampleScenario.node[22].veinsmobility 	totalCO2Emission 	596.40503485349
scalar RSUExampleScenario.node[23].veinsmobility 	startTime 	55.5
scalar RSUExampleScenario.node[23].veinsmobility 	totalTime 	294.5
scalar RSUExampleScenario.node[23].veinsmobility 	stopTime 	350
scalar RSUExampleScenario.node[23].veinsmobility 	minSpeed 	0
scalar RSUExampleScenario.node[23].veinsmobility 	maxSpeed 	13.999943525936
scalar RSUExampleScenario.node[23].veinsmobility 	totalDistance 	2341.4196403464
scalar RSUExampleScenario.node[23].veinsmobility 	totalCO2Emission 	588.15026403413
scalar RSUExampleScenario.node[24].veinsmobility 	startTime 	57.9
scalar RSUExampleScenario.node[24].veinsmobility 	totalTime 	292.1
scalar RSUExampleScenario.node[24].veinsmobility 	stopTime 	350
scalar RSUExampleScenario.node[24].veinsmobility 	minSpeed 	0
scalar RSUExampleScenario.node[24].veinsmobility 	maxSpeed 	13.999984968677
scalar RSUExampleScenario.node[24].veinsmobility 	totalDistance 	2304.5199119087
scalar RSUExampleScenario.node[24].veinsmobility 	totalCO2Emission 	579.6178031904
scalar RSUExampleScenario.node[25].veinsmobility 	startTime 	60.3
scalar RSUExampleScenario.node[25].veinsmobility 	totalTime 	289.7
scalar RSUExampleScenario.node[25].veinsmobility 	stopTime 	350
scalar RSUExampleScenario.node[25].veinsmobility 	minSpeed 	0
scalar RSUExampleScenario.node[25].veinsmobility 	maxSpeed 	13.999940781053
scalar RSUExampleScenario.node[25].veinsmobility 	totalDistance 	2274.8919750276
scalar RSUExampleScenario.node[25].veinsmobility 	totalCO2Emission 	575.01206677057
scalar RSUExampleScenario.node[26].veinsmobility 	startTime 	62.7
scalar RSUExampleScenario.node[26].veinsmobility 	totalTime 	287.3
scalar RSUExampleScenario.node[26].veinsmobility 	stopTime 	350
scalar RSUExampleScenario.node[26].veinsmobility 	minSpeed 	0
scalar RSUExampleScenario.node[26].veinsmobility 	maxSpeed 	13.999944409973
scalar RSUExampleScenario.node[26].veinsmobility 	totalDistance 	2234.8547014497
scalar RSUExampleScenario.node[26].veinsmobility 	totalCO2Emission 	568.04156326066
scalar RSUExampleScenario.node[27].veinsmobility 	startTime 	65.1
scalar RSUExampleScenario.node[27].veinsmobility 	totalTime 	284.9
scalar RSUExampleScenario.node[27].veinsmobility 	stopTime 	350
scalar RSUExampleScenario.node[27].veinsmobility 	minSpeed 	0
scalar RSUExampleScenario.node[27].veinsmobility 	maxSpeed 	13.999732935259
scalar RSUExampleScenario.node[27].veinsmobility 	totalDistance 	2205.9285578198
scalar RSUExampleScenario.node[27].veinsmobility 	totalCO2Emission 	563.56814408908
scalar RSUExampleScenario.node[28].veinsmobility 	startTime 	67.5
scalar RSUExampleScenario.node[28].veinsmobility 	totalTime 	282.5
scalar RSUExampleScenario.node[28].veinsmobility 	stopTime 	350
scalar RSUExampleScenario.node[28].veinsmobility 	minSpeed 	0
scalar RSUExampleScenario.node[28].veinsmobility 	maxSpeed 	13.99995913801
scalar RSUExampleScenario.node[28].veinsmobility 	totalDistance 	2168.1114986707
scalar RSUExampleScenario.node[28].veinsmobility 	totalCO2Emission 	557.86272459429
scalar RSUExampleScenario.node[29].veinsmobility 	startTime 	69.9
scalar RSUExampleScenario.node[29].veinsmobility 	totalTime 	280.1
scalar RSUExampleScenario.node[29].veinsmobility 	stopTime 	350
scalar RSUExampleScenario.node[29].veinsmobility 	minSpeed 	0
scalar RSUExampleScenario.node[29].veinsmobility 	maxSpeed 	13.999779872457
scalar RSUExampleScenario.node[29].veinsmobility 	totalDistance 	2134.5958880053
scalar RSUExampleScenario.node[29].veinsmobility 	totalCO2Emission 	554.32704451316
scalar RSUExampleScenario.node[3].veinsmobility 	startTime 	7.3
scalar RSUExampleScenario.node[3].veinsmobility 	totalTime 	342.7
scalar RSUExampleScenario.node[3].veinsmobility 	stopTime 	350
scalar RSUExampleScenario.node[3].veinsmobility 	minSpeed 	0
scalar RSUExampleScenario.node[3].veinsmobility 	maxSpeed 	13.999911542756
scalar RSUExampleScenario.node[3].veinsmobility 	totalDistance 	2996.9946819176
scalar RSUExampleScenario.node[3].veinsmobility 	totalCO2Emission 	715.09023747677
scalar RSUExampleScenario.node[30].veinsmobility 	startTime 	72.4
scalar RSUExampleScenario.node[30].veinsmobility 	totalTime 	277.6
scalar RSUExampleScenario.node[30].veinsmobility 	stopTime 	350
scalar RSUExampleScenario.node[30].veinsmobility 	minSpeed 	0
scalar RSUExampleScenario.node[30].veinsmobility 	maxSpeed 	13.999998547954
scalar RSUExampleScenario.node[30].veinsmobility 	totalDistance 	2099.804426141
scalar RSUExampleScenario.node[30].veinsmobility 	totalCO2Emission 	541.62358963453
scalar RSUExampleScenario.node[31].veinsmobility 	startTime 	74.8
scalar RSUExampleScenario.node[31].veinsmobility 	totalTime 	275.2
scalar RSUExampleScenario.node[31].veinsmobility 	stopTime 	350
scalar RSUExampleScenario.node[31].veinsmobility 	minSpeed 	0
scalar RSUExampleScenario.node[31].veinsmobility 	maxSpeed 	13.999983703536
scalar RSUExampleScenario.node[31].veinsmobility 	totalDistance 	2068.7434553659
scalar RSUExampleScenario.node[31].veinsmobility 	totalCO2Emission 	541.38755496262
scalar RSUExampleScenario.node[32].veinsmobility 	startTime 	77.2
scalar RSUExampleScenario.node[32].veinsmobility 	totalTime 	272.8
scalar RSUExampleScenario.node[32].veinsmobility 	stopTime 	350
scalar RSUExampleScenario.node[32].veinsmobility 	minSpeed 	0
scalar RSUExampleScenario.node[32].veinsmobility 	maxSpeed 	13.999818789577
scalar RSUExampleScenario.node[32].veinsmobility 	totalDistance 	2032.8434302317
scalar RSUExampleScenario.node[32].veinsmobility 	totalCO2Emission 	535.11183690554
scalar RSUExampleScenario.node[33].veinsmobility 	startTime 	79.6
scalar RSUExampleScenario.node[33].veinsmobility 	totalTime 	270.4
scalar RSUExampleScenario.node[33].veinsmobility 	stopTime 	350
scalar RSUExampleScenario.node[33].veinsmobility 	minSpeed 	0
scalar RSUExampleScenario.node[33].veinsmobility 	maxSpeed 	13.999994183311
scalar RSUExampleScenario.node[33].veinsmobility 	totalDistance 	1999.1211177255
scalar RSUExampleScenario.node[33].veinsmobility 	totalCO2Emission 	531.21763267178
scalar RSUExampleScenario.node[34].veinsmobility 	startTime 	82
scalar RSUExampleScenario.node[34].veinsmobility 	totalTime 	268
scalar RSUExampleScenario.node[34].veinsmobility 	stopTime 	350
scalar RSUExampleScenario.node[34].veinsmobility 	minSpeed 	0
scalar RSUExampleScenario.node[34].veinsmobility 	maxSpeed 	13.999939829519
scalar RSUExampleScenario.node[34].veinsmobility 	totalDistance 	1966.5405066463
scalar RSUExampleScenario.node[34].veinsmobility 	totalCO2Emission 	520.03520450229
scalar RSUExampleScenario.node[35].veinsmobility 	startTime 	84.4
scalar RSUExampleScenario.node[35].veinsmobility 	totalTime 	265.6
scalar RSUExampleScenario.node[35].veinsmobility 	stopTime 	350
scalar RSUExampleScenario.node[35].veinsmobility 	minSpeed 	0
scalar RSUExampleScenario.node[35].veinsmobility 	maxSpeed 	13.999866616866
scalar RSUExampleScenario.node[35].veinsmobility 	totalDistance 	1930.9631741324
scalar RSUExampleScenario.node[35].veinsmobility 	totalCO2Emission 	519.56770013884
scalar RSUExampleScenario.node[36].veinsmobility 	startTime 	86.8
scalar RSUExampleScenario.node[36].veinsmobility 	totalTime 	263.2
scalar RSUExampleScenario.node[36].veinsmobility 	stopTime 	350
scalar RSUExampleScenario.node[36].veinsmobility 	minSpeed 	0
scalar RSUExampleScenario.node[36].veinsmobility 	maxSpeed 	13.99995845356
scalar RSUExampleScenario.node[36].veinsmobility 	totalDistance 	1897.1880500039
scalar RSUExampleScenario.node[36].veinsmobility 	totalCO2Emission 	512.57199805566
scalar RSUExampleScenario.node[37].veinsmobility 	startTime 	89.2
scalar RSUExampleScenario.node[37].veinsmobility 	totalTime 	260.8
scalar RSUExampleScenario.node[37].veinsmobility 	stopTime 	350
scalar RSUExampleScenario.node[37].veinsmobility 	minSpeed 	0
scalar RSUExampleScenario.node[37].veinsmobility 	maxSpeed 	13.999864285383
scalar RSUExampleScenario.node[37].veinsmobility 	totalDistance 	1864.0164399285
scalar RSUExampleScenario.node[37].veinsmobility 	totalCO2Emission 	505.14519672203
scalar RSUExampleScenario.node[38].veinsmobility 	startTime 	91.6
scalar RSUExampleScenario.node[38].veinsmobility 	totalTime 	258.4
scalar RSUExampleScenario.node[38].veinsmobility 	stopTime 	350
scalar RSUExampleScenario.node[38].veinsmobility 	minSpeed 	0
scalar RSUExampleScenario.node[38].veinsmobility 	maxSpeed 	13.999969646933
scalar RSUExampleScenario.node[38].veinsmobility 	totalDistance 	1831.0032228156
scalar RSUExampleScenario.node[38].veinsmobility 	totalCO2Emission 	499.63213757529
scalar RSUExampleScenario.node[39].veinsmobility 	startTime 	94
scalar RSUExampleScenario.node[39].veinsmobility 	totalTime 	256
scalar RSUExampleScenario.node[39].veinsmobility 	stopTime 	350
scalar RSUExampleScenario.node[39].veinsmobility 	minSpeed 	0
scalar RSUExampleScenario.node[39].veinsmobility 	maxSpeed 	13.99985343301
scalar RSUExampleScenario.node[39].veinsmobility 	totalDistance 	1797.4992471823
scalar RSUExampleScenario.node[39].veinsmobility 	totalCO2Emission 	496.90994588949
scalar RSUExampleScenario.node[4].veinsmobility 	startTime 	9.7
scalar RSUExampleScenario.node[4].veinsmobility 	totalTime 	340.3
scalar RSUExampleScenario.node[4].veinsmobility 	stopTime 	350
scalar RSUExampleScenario.node[4].veinsmobility 	minSpeed 	0
scalar RSUExampleScenario.node[4].veinsmobility 	maxSpeed 	13.999871744686
scalar RSUExampleScenario.node[4].veinsmobility 	totalDistance 	2944.9039304633
scalar RSUExampleScenario.node[4].veinsmobility 	totalCO2Emission 	702.97332015152
scalar RSUExampleScenario.node[40].veinsmobility 	startTime 	96.5
scalar RSUExampleScenario.node[40].veinsmobility 	totalTime 	253.5
scalar RSUExampleScenario.node[40].veinsmobility 	stopTime 	350
scalar RSUExampleScenario.node[40].veinsmobility 	minSpeed 	0
scalar RSUExampleScenario.node[40].veinsmobility 	maxSpeed 	13.999970901238
scalar RSUExampleScenario.node[40].veinsmobility 	totalDistance 	1762.8436901849
scalar RSUExampleScenario.node[40].veinsmobility 	totalCO2Emission 	492.12597123325
scalar RSUExampleScenario.node[41].veinsmobility 	startTime 	98.9
scalar RSUExampleScenario.node[41].veinsmobility 	totalTime 	251.1
scalar RSUExampleScenario.node[41].veinsmobility 	stopTime 	350
scalar RSUExampleScenario.node[41].veinsmobility 	minSpeed 	0
scalar RSUExampleScenario.node[41].veinsmobility 	maxSpeed 	13.999899371515
scalar RSUExampleScenario.node[41].veinsmobility 	totalDistance 	1728.5409688635
scalar RSUExampleScenario.node[41].veinsmobility 	totalCO2Emission 	484.80353608193
scalar RSUExampleScenario.node[42].veinsmobility 	startTime 	101.3
scalar RSUExampleScenario.node[42].veinsmobility 	totalTime 	248.7
scalar RSUExampleScenario.node[42].veinsmobility 	stopTime 	350
scalar RSUExampleScenario.node[42].veinsmobility 	minSpeed 	0
scalar RSUExampleScenario.node[42].veinsmobility 	maxSpeed 	13.999976735332
scalar RSUExampleScenario.node[42].veinsmobility 	totalDistance 	1696.1509033536
scalar RSUExampleScenario.node[42].veinsmobility 	totalCO2Emission 	479.25945307985
scalar RSUExampleScenario.node[43].veinsmobility 	startTime 	103.7
scalar RSUExampleScenario.node[43].veinsmobility 	totalTime 	246.3
scalar RSUExampleScenario.node[43].veinsmobility 	stopTime 	350
scalar RSUExampleScenario.node[43].veinsmobility 	minSpeed 	0
scalar RSUExampleScenario.node[43].veinsmobility 	maxSpeed 	13.99988606126
scalar RSUExampleScenario.node[43].veinsmobility 	totalDistance 	1660.5272851307
scalar RSUExampleScenario.node[43].veinsmobility 	totalCO2Emission 	472.82184256111
scalar RSUExampleScenario.node[44].veinsmobility 	startTime 	106.1
scalar RSUExampleScenario.node[44].veinsmobility 	totalTime 	243.9
scalar RSUExampleScenario.node[44].veinsmobility 	stopTime 	350
scalar RSUExampleScenario.node[44].veinsmobility 	minSpeed 	0
scalar RSUExampleScenario.node[44].veinsmobility 	maxSpeed 	13.999928220022
scalar RSUExampleScenario.node[44].veinsmobility 	totalDistance 	1629.1636757042
scalar RSUExampleScenario.node[44].veinsmobility 	totalCO2Emission 	468.44301397104
scalar RSUExampleScenario.node[45].veinsmobility 	startTime 	108.5
scalar RSUExampleScenario.node[45].veinsmobility 	totalTime 	241.5
scalar RSUExampleScenario.node[45].veinsmobility 	stopTime 	350
scalar RSUExampleScenario.node[45].veinsmobility 	minSpeed 	0
scalar RSUExampleScenario.node[45].veinsmobility 	maxSpeed 	13.999683770579
scalar RSUExampleScenario.node[45].veinsmobility 	totalDistance 	1596.3321023698
scalar RSUExampleScenario.node[45].veinsmobility 	totalCO2Emission 	463.92134859187
scalar RSUExampleScenario.node[46].veinsmobility 	startTime 	110.9
scalar RSUExampleScenario.node[46].veinsmobility 	totalTime 	239.1
scalar RSUExampleScenario.node[46].veinsmobility 	stopTime 	350
scalar RSUExampleScenario.node[46].veinsmobility 	minSpeed 	0
scalar RSUExampleScenario.node[46].veinsmobility 	maxSpeed 	13.999568629565
scalar RSUExampleScenario.node[46].veinsmobility 	totalDistance 	1562.2332504535
scalar RSUExampleScenario.node[46].veinsmobility 	totalCO2Emission 	453.76634566446
scalar RSUExampleScenario.node[47].veinsmobility 	startTime 	113.3
scalar RSUExampleScenario.node[47].veinsmobility 	totalTime 	236.7
scalar RSUExampleScenario.node[47].veinsmobility 	stopTime 	350
scalar RSUExampleScenario.node[47].veinsmobility 	minSpeed 	0
scalar RSUExampleScenario.node[47].veinsmobility 	maxSpeed 	13.999877192862
scalar RSUExampleScenario.node[47].veinsmobility 	totalDistance 	1528.723168901
scalar RSUExampleScenario.node[47].veinsmobility 	totalCO2Emission 	451.25480399109
scalar RSUExampleScenario.node[48].veinsmobility 	startTime 	115.7
scalar RSUExampleScenario.node[48].veinsmobility 	totalTime 	234.3
scalar RSUExampleScenario.node[48].veinsmobility 	stopTime 	350
scalar RSUExampleScenario.node[48].veinsmobility 	minSpeed 	0
scalar RSUExampleScenario.node[48].veinsmobility 	maxSpeed 	13.999856320333
scalar RSUExampleScenario.node[48].veinsmobility 	totalDistance 	1494.4727597071
scalar RSUExampleScenario.node[48].veinsmobility 	totalCO2Emission 	444.39145577197
scalar RSUExampleScenario.node[49].veinsmobility 	startTime 	118.1
scalar RSUExampleScenario.node[49].veinsmobility 	totalTime 	231.9
scalar RSUExampleScenario.node[49].veinsmobility 	stopTime 	350
scalar RSUExampleScenario.node[49].veinsmobility 	minSpeed 	0
scalar RSUExampleScenario.node[49].veinsmobility 	maxSpeed 	13.999974413989
scalar RSUExampleScenario.node[49].veinsmobility 	totalDistance 	1461.6843925647
scalar RSUExampleScenario.node[49].veinsmobility 	totalCO2Emission 	439.83939365963
scalar RSUExampleScenario.node[5].veinsmobility 	startTime 	12.1
scalar RSUExampleScenario.node[5].veinsmobility 	totalTime 	337.9
scalar RSUExampleScenario.node[5].veinsmobility 	stopTime 	350
scalar RSUExampleScenario.node[5].veinsmobility 	minSpeed 	0
scalar RSUExampleScenario.node[5].veinsmobility 	maxSpeed 	13.999863539792
scalar RSUExampleScenario.node[5].veinsmobility 	totalDistance 	2918.0838161806
scalar RSUExampleScenario.node[5].veinsmobility 	totalCO2Emission 	687.07926993155
scalar RSUExampleScenario.node[50].veinsmobility 	startTime 	120.6
scalar RSUExampleScenario.node[50].veinsmobility 	totalTime 	229.4
scalar RSUExampleScenario.node[50].veinsmobility 	stopTime 	350
scalar RSUExampleScenario.node[50].veinsmobility 	minSpeed 	0
scalar RSUExampleScenario.node[50].veinsmobility 	maxSpeed 	13.9998400657
scalar RSUExampleScenario.node[50].veinsmobility 	totalDistance 	1427.3007753738
scalar RSUExampleScenario.node[50].veinsmobility 	totalCO2Emission 	433.31208916801
scalar RSUExampleScenario.node[51].veinsmobility 	startTime 	123
scalar RSUExampleScenario.node[51].veinsmobility 	totalTime 	227
scalar RSUExampleScenario.node[51].veinsmobility 	stopTime 	350
scalar RSUExampleScenario.node[51].veinsmobility 	minSpeed 	0
scalar RSUExampleScenario.node[51].veinsmobility 	maxSpeed 	13.99981842963
scalar RSUExampleScenario.node[51].veinsmobility 	totalDistance 	1392.068639829
scalar RSUExampleScenario.node[51].veinsmobility 	totalCO2Emission 	430.5461089685
scalar RSUExampleScenario.node[52].veinsmobility 	startTime 	125.4
scalar RSUExampleScenario.node[52].veinsmobility 	totalTime 	224.6
scalar RSUExampleScenario.node[52].veinsmobility 	stopTime 	350
scalar RSUExampleScenario.node[52].veinsmobility 	minSpeed 	0
scalar RSUExampleScenario.node[52].veinsmobility 	maxSpeed 	13.999447047221
scalar RSUExampleScenario.node[52].veinsmobility 	totalDistance 	1358.6672548
scalar RSUExampleScenario.node[52].veinsmobility 	totalCO2Emission 	423.58525134204
scalar RSUExampleScenario.node[53].veinsmobility 	startTime 	127.8
scalar RSUExampleScenario.node[53].veinsmobility 	totalTime 	222.2
scalar RSUExampleScenario.node[53].veinsmobility 	stopTime 	350
scalar RSUExampleScenario.node[53].veinsmobility 	minSpeed 	0
scalar RSUExampleScenario.node[53].veinsmobility 	maxSpeed 	13.999785765875
scalar RSUExampleScenario.node[53].veinsmobility 	totalDistance 	1326.8820897437
scalar RSUExampleScenario.node[53].veinsmobility 	totalCO2Emission 	418.2402185412
scalar RSUExampleScenario.node[54].veinsmobility 	startTime 	130.2
scalar RSUExampleScenario.node[54].veinsmobility 	totalTime 	219.8
scalar RSUExampleScenario.node[54].veinsmobility 	stopTime 	350
scalar RSUExampleScenario.node[54].veinsmobility 	minSpeed 	0
scalar RSUExampleScenario.node[54].veinsmobility 	maxSpeed 	13.999976284793
scalar RSUExampleScenario.node[54].veinsmobility 	totalDistance 	1294.2591233448
scalar RSUExampleScenario.node[54].veinsmobility 	totalCO2Emission 	409.28794258348
scalar RSUExampleScenario.node[55].veinsmobility 	startTime 	132.6
scalar RSUExampleScenario.node[55].veinsmobility 	totalTime 	217.4
scalar RSUExampleScenario.node[55].veinsmobility 	stopTime 	350
scalar RSUExampleScenario.node[55].veinsmobility 	minSpeed 	0
scalar RSUExampleScenario.node[55].veinsmobility 	maxSpeed 	13.999949894107
scalar RSUExampleScenario.node[55].veinsmobility 	totalDistance 	1259.9968097023
scalar RSUExampleScenario.node[55].veinsmobility 	totalCO2Emission 	404.74193923544
scalar RSUExampleScenario.node[56].veinsmobility 	startTime 	135
scalar RSUExampleScenario.node[56].veinsmobility 	totalTime 	215
scalar RSUExampleScenario.node[56].veinsmobility 	stopTime 	350
scalar RSUExampleScenario.node[56].veinsmobility 	minSpeed 	0
scalar RSUExampleScenario.node[56].veinsmobility 	maxSpeed 	13.99987314119
scalar RSUExampleScenario.node[56].veinsmobility 	totalDistance 	1226.5564979774
scalar RSUExampleScenario.node[56].veinsmobility 	totalCO2Emission 	398.21413308008
scalar RSUExampleScenario.node[57].veinsmobility 	startTime 	137.4
scalar RSUExampleScenario.node[57].veinsmobility 	totalTime 	212.6
scalar RSUExampleScenario.node[57].veinsmobility 	stopTime 	350
scalar RSUExampleScenario.node[57].veinsmobility 	minSpeed 	0
scalar RSUExampleScenario.node[57].veinsmobility 	maxSpeed 	13.999297652384
scalar RSUExampleScenario.node[57].veinsmobility 	totalDistance 	1192.1005506574
scalar RSUExampleScenario.node[57].veinsmobility 	totalCO2Emission 	392.88357792203
scalar RSUExampleScenario.node[58].veinsmobility 	startTime 	139.8
scalar RSUExampleScenario.node[58].veinsmobility 	totalTime 	210.2
scalar RSUExampleScenario.node[58].veinsmobility 	stopTime 	350
scalar RSUExampleScenario.node[58].veinsmobility 	minSpeed 	0
scalar RSUExampleScenario.node[58].veinsmobility 	maxSpeed 	13.999728032148
scalar RSUExampleScenario.node[58].veinsmobility 	totalDistance 	1159.6660603269
scalar RSUExampleScenario.node[58].veinsmobility 	totalCO2Emission 	388.32567218351
scalar RSUExampleScenario.node[59].veinsmobility 	startTime 	142.2
scalar RSUExampleScenario.node[59].veinsmobility 	totalTime 	207.8
scalar RSUExampleScenario.node[59].veinsmobility 	stopTime 	350
scalar RSUExampleScenario.node[59].veinsmobility 	minSpeed 	0
scalar RSUExampleScenario.node[59].veinsmobility 	maxSpeed 	13.999675625071
scalar RSUExampleScenario.node[59].veinsmobility 	totalDistance 	1124.7369439052
scalar RSUExampleScenario.node[59].veinsmobility 	totalCO2Emission 	383.84071455848
scalar RSUExampleScenario.node[6].veinsmobility 	startTime 	14.5
scalar RSUExampleScenario.node[6].veinsmobility 	totalTime 	335.5
scalar RSUExampleScenario.node[6].veinsmobility 	stopTime 	350
scalar RSUExampleScenario.node[6].veinsmobility 	minSpeed 	0
scalar RSUExampleScenario.node[6].veinsmobility 	maxSpeed 	13.999852214996
scalar RSUExampleScenario.node[6].veinsmobility 	totalDistance 	2901.3934068268
scalar RSUExampleScenario.node[6].veinsmobility 	totalCO2Emission 	680.90792375378
scalar RSUExampleScenario.node[60].veinsmobility 	startTime 	144.7
scalar RSUExampleScenario.node[60].veinsmobility 	totalTime 	205.3
scalar RSUExampleScenario.node[60].veinsmobility 	stopTime 	350
scalar RSUExampleScenario.node[60].veinsmobility 	minSpeed 	0
scalar RSUExampleScenario.node[60].veinsmobility 	maxSpeed 	13.999565321547
scalar RSUExampleScenario.node[60].veinsmobility 	totalDistance 	1092.7376927028
scalar RSUExampleScenario.node[60].veinsmobility 	totalCO2Emission 	375.5335273714
scalar RSUExampleScenario.node[61].veinsmobility 	startTime 	147.1
scalar RSUExampleScenario.node[61].veinsmobility 	totalTime 	202.9
scalar RSUExampleScenario.node[61].veinsmobility 	stopTime 	350
scalar RSUExampleScenario.node[61].veinsmobility 	minSpeed 	0
scalar RSUExampleScenario.node[61].veinsmobility 	maxSpeed 	13.999762184634
scalar RSUExampleScenario.node[61].veinsmobility 	totalDistance 	1059.3398367637
scalar RSUExampleScenario.node[61].veinsmobility 	totalCO2Emission 	370.62265018443
scalar RSUExampleScenario.node[62].veinsmobility 	startTime 	149.5
scalar RSUExampleScenario.node[62].veinsmobility 	totalTime 	200.5
scalar RSUExampleScenario.node[62].veinsmobility 	stopTime 	350
scalar RSUExampleScenario.node[62].veinsmobility 	minSpeed 	0
scalar RSUExampleScenario.node[62].veinsmobility 	maxSpeed 	13.999831851302
scalar RSUExampleScenario.node[62].veinsmobility 	totalDistance 	1025.2419622899
scalar RSUExampleScenario.node[62].veinsmobility 	totalCO2Emission 	366.075796247
scalar RSUExampleScenario.node[63].veinsmobility 	startTime 	151.9
scalar RSUExampleScenario.node[63].veinsmobility 	totalTime 	198.1
scalar RSUExampleScenario.node[63].veinsmobility 	stopTime 	350
scalar RSUExampleScenario.node[63].veinsmobility 	minSpeed 	0
scalar RSUExampleScenario.node[63].veinsmobility 	maxSpeed 	13.999836700959
scalar RSUExampleScenario.node[63].veinsmobility 	totalDistance 	988.99474632967
scalar RSUExampleScenario.node[63].veinsmobility 	totalCO2Emission 	357.4848581103
scalar RSUExampleScenario.node[64].veinsmobility 	startTime 	154.3
scalar RSUExampleScenario.node[64].veinsmobility 	totalTime 	195.7
scalar RSUExampleScenario.node[64].veinsmobility 	stopTime 	350
scalar RSUExampleScenario.node[64].veinsmobility 	minSpeed 	0
scalar RSUExampleScenario.node[64].veinsmobility 	maxSpeed 	13.999621961329
scalar RSUExampleScenario.node[64].veinsmobility 	totalDistance 	954.70023645901
scalar RSUExampleScenario.node[64].veinsmobility 	totalCO2Emission 	339.48685796973
scalar RSUExampleScenario.node[65].veinsmobility 	startTime 	156.7
scalar RSUExampleScenario.node[65].veinsmobility 	totalTime 	193.3
scalar RSUExampleScenario.node[65].veinsmobility 	stopTime 	350
scalar RSUExampleScenario.node[65].veinsmobility 	minSpeed 	0
scalar RSUExampleScenario.node[65].veinsmobility 	maxSpeed 	13.999241573408
scalar RSUExampleScenario.node[65].veinsmobility 	totalDistance 	940.58874442368
scalar RSUExampleScenario.node[65].veinsmobility 	totalCO2Emission 	333.63533130976
scalar RSUExampleScenario.node[66].veinsmobility 	startTime 	159.1
scalar RSUExampleScenario.node[66].veinsmobility 	totalTime 	190.9
scalar RSUExampleScenario.node[66].veinsmobility 	stopTime 	350
scalar RSUExampleScenario.node[66].veinsmobility 	minSpeed 	0
scalar RSUExampleScenario.node[66].veinsmobility 	maxSpeed 	13.999926697905
scalar RSUExampleScenario.node[66].veinsmobility 	totalDistance 	928.43944269083
scalar RSUExampleScenario.node[66].veinsmobility 	totalCO2Emission 	325.53170004187
scalar RSUExampleScenario.node[67].veinsmobility 	startTime 	161.5
scalar RSUExampleScenario.node[67].veinsmobility 	totalTime 	188.5
scalar RSUExampleScenario.node[67].veinsmobility 	stopTime 	350
scalar RSUExampleScenario.node[67].veinsmobility 	minSpeed 	0
scalar RSUExampleScenario.node[67].veinsmobility 	maxSpeed 	13.999850184559
scalar RSUExampleScenario.node[67].veinsmobility 	totalDistance 	913.39719437018
scalar RSUExampleScenario.node[67].veinsmobility 	totalCO2Emission 	326.1362506083
scalar RSUExampleScenario.node[68].veinsmobility 	startTime 	163.9
scalar RSUExampleScenario.node[68].veinsmobility 	totalTime 	186.1
scalar RSUExampleScenario.node[68].veinsmobility 	stopTime 	350
scalar RSUExampleScenario.node[68].veinsmobility 	minSpeed 	0
scalar RSUExampleScenario.node[68].veinsmobility 	maxSpeed 	13.999679138004
scalar RSUExampleScenario.node[68].veinsmobility 	totalDistance 	893.57969178107
scalar RSUExampleScenario.node[68].veinsmobility 	totalCO2Emission 	321.83421712605
scalar RSUExampleScenario.node[69].veinsmobility 	startTime 	166.3
scalar RSUExampleScenario.node[69].veinsmobility 	totalTime 	183.7
scalar RSUExampleScenario.node[69].veinsmobility 	stopTime 	350
scalar RSUExampleScenario.node[69].veinsmobility 	minSpeed 	0
scalar RSUExampleScenario.node[69].veinsmobility 	maxSpeed 	13.999736303783
scalar RSUExampleScenario.node[69].veinsmobility 	totalDistance 	858.6189393918
scalar RSUExampleScenario.node[69].veinsmobility 	totalCO2Emission 	315.32842119625
scalar RSUExampleScenario.node[7].veinsmobility 	startTime 	16.9
scalar RSUExampleScenario.node[7].veinsmobility 	totalTime 	333.1
scalar RSUExampleScenario.node[7].veinsmobility 	stopTime 	350
scalar RSUExampleScenario.node[7].veinsmobility 	minSpeed 	0
scalar RSUExampleScenario.node[7].veinsmobility 	maxSpeed 	13.999880559419
scalar RSUExampleScenario.node[7].veinsmobility 	totalDistance 	2889.1105573488
scalar RSUExampleScenario.node[7].veinsmobility 	totalCO2Emission 	677.97741658817
scalar RSUExampleScenario.node[70].veinsmobility 	startTime 	168.8
scalar RSUExampleScenario.node[70].veinsmobility 	totalTime 	181.2
scalar RSUExampleScenario.node[70].veinsmobility 	stopTime 	350
scalar RSUExampleScenario.node[70].veinsmobility 	minSpeed 	0
scalar RSUExampleScenario.node[70].veinsmobility 	maxSpeed 	13.999818755223
scalar RSUExampleScenario.node[70].veinsmobility 	totalDistance 	826.82651258983
scalar RSUExampleScenario.node[70].veinsmobility 	totalCO2Emission 	311.01201239585
scalar RSUExampleScenario.node[71].veinsmobility 	startTime 	171.2
scalar RSUExampleScenario.node[71].veinsmobility 	totalTime 	178.8
scalar RSUExampleScenario.node[71].veinsmobility 	stopTime 	350
scalar RSUExampleScenario.node[71].veinsmobility 	minSpeed 	0
scalar RSUExampleScenario.node[71].veinsmobility 	maxSpeed 	13.999222268821
scalar RSUExampleScenario.node[71].veinsmobility 	totalDistance 	793.04163449659
scalar RSUExampleScenario.node[71].veinsmobility 	totalCO2Emission 	303.04311769927
scalar RSUExampleScenario.node[72].veinsmobility 	startTime 	173.6
scalar RSUExampleScenario.node[72].veinsmobility 	totalTime 	176.4
scalar RSUExampleScenario.node[72].veinsmobility 	stopTime 	350
scalar RSUExampleScenario.node[72].veinsmobility 	minSpeed 	0
scalar RSUExampleScenario.node[72].veinsmobility 	maxSpeed 	13.999717923519
scalar RSUExampleScenario.node[72].veinsmobility 	totalDistance 	759.40798947264
scalar RSUExampleScenario.node[72].veinsmobility 	totalCO2Emission 	298.20876759815
scalar RSUExampleScenario.node[73].veinsmobility 	startTime 	176
scalar RSUExampleScenario.node[73].veinsmobility 	totalTime 	174
scalar RSUExampleScenario.node[73].veinsmobility 	stopTime 	350
scalar RSUExampleScenario.node[73].veinsmobility 	minSpeed 	0
scalar RSUExampleScenario.node[73].veinsmobility 	maxSpeed 	13.999779407389
scalar RSUExampleScenario.node[73].veinsmobility 	totalDistance 	726.72540870192
scalar RSUExampleScenario.node[73].veinsmobility 	totalCO2Emission 	294.40467465784
scalar RSUExampleScenario.node[74].veinsmobility 	startTime 	178.4
scalar RSUExampleScenario.node[74].veinsmobility 	totalTime 	171.6
scalar RSUExampleScenario.node[74].veinsmobility 	stopTime 	350
scalar RSUExampleScenario.node[74].veinsmobility 	minSpeed 	0
scalar RSUExampleScenario.node[74].veinsmobility 	maxSpeed 	13.999397320193
scalar RSUExampleScenario.node[74].veinsmobility 	totalDistance 	692.68727018507
scalar RSUExampleScenario.node[74].veinsmobility 	totalCO2Emission 	286.22269748109
scalar RSUExampleScenario.node[75].veinsmobility 	startTime 	180.8
scalar RSUExampleScenario.node[75].veinsmobility 	totalTime 	169.2
scalar RSUExampleScenario.node[75].veinsmobility 	stopTime 	350
scalar RSUExampleScenario.node[75].veinsmobility 	minSpeed 	0
scalar RSUExampleScenario.node[75].veinsmobility 	maxSpeed 	13.999888252148
scalar RSUExampleScenario.node[75].veinsmobility 	totalDistance 	659.67397028957
scalar RSUExampleScenario.node[75].veinsmobility 	totalCO2Emission 	281.3541381709
scalar RSUExampleScenario.node[76].veinsmobility 	startTime 	183.2
scalar RSUExampleScenario.node[76].veinsmobility 	totalTime 	166.8
scalar RSUExampleScenario.node[76].veinsmobility 	stopTime 	350
scalar RSUExampleScenario.node[76].veinsmobility 	minSpeed 	0
scalar RSUExampleScenario.node[76].veinsmobility 	maxSpeed 	13.99738509017
scalar RSUExampleScenario.node[76].veinsmobility 	totalDistance 	626.01261140069
scalar RSUExampleScenario.node[76].veinsmobility 	totalCO2Emission 	275.57614391786
scalar RSUExampleScenario.node[77].veinsmobility 	startTime 	185.6
scalar RSUExampleScenario.node[77].veinsmobility 	totalTime 	164.4
scalar RSUExampleScenario.node[77].veinsmobility 	stopTime 	350
scalar RSUExampleScenario.node[77].veinsmobility 	minSpeed 	0
scalar RSUExampleScenario.node[77].veinsmobility 	maxSpeed 	13.999113230316
scalar RSUExampleScenario.node[77].veinsmobility 	totalDistance 	590.61408920632
scalar RSUExampleScenario.node[77].veinsmobility 	totalCO2Emission 	270.72349160126
scalar RSUExampleScenario.node[78].veinsmobility 	startTime 	188
scalar RSUExampleScenario.node[78].veinsmobility 	totalTime 	162
scalar RSUExampleScenario.node[78].veinsmobility 	stopTime 	350
scalar RSUExampleScenario.node[78].veinsmobility 	minSpeed 	0
scalar RSUExampleScenario.node[78].veinsmobility 	maxSpeed 	13.999776655303
scalar RSUExampleScenario.node[78].veinsmobility 	totalDistance 	557.69135441726
scalar RSUExampleScenario.node[78].veinsmobility 	totalCO2Emission 	265.81919769435
scalar RSUExampleScenario.node[79].veinsmobility 	startTime 	190.4
scalar RSUExampleScenario.node[79].veinsmobility 	totalTime 	159.6
scalar RSUExampleScenario.node[79].veinsmobility 	stopTime 	350
scalar RSUExampleScenario.node[79].veinsmobility 	minSpeed 	0
scalar RSUExampleScenario.node[79].veinsmobility 	maxSpeed 	13.999065167573
scalar RSUExampleScenario.node[79].veinsmobility 	totalDistance 	524.40177883667
scalar RSUExampleScenario.node[79].veinsmobility 	totalCO2Emission 	260.8751521682
scalar RSUExampleScenario.node[8].veinsmobility 	startTime 	19.3
scalar RSUExampleScenario.node[8].veinsmobility 	totalTime 	330.7
scalar RSUExampleScenario.node[8].veinsmobility 	stopTime 	350
scalar RSUExampleScenario.node[8].veinsmobility 	minSpeed 	0
scalar RSUExampleScenario.node[8].veinsmobility 	maxSpeed 	13.999836777234
scalar RSUExampleScenario.node[8].veinsmobility 	totalDistance 	2860.8317959824
scalar RSUExampleScenario.node[8].veinsmobility 	totalCO2Emission 	677.1719997977
scalar RSUExampleScenario.node[80].veinsmobility 	startTime 	192.9
scalar RSUExampleScenario.node[80].veinsmobility 	totalTime 	157.1
scalar RSUExampleScenario.node[80].veinsmobility 	stopTime 	350
scalar RSUExampleScenario.node[80].veinsmobility 	minSpeed 	0
scalar RSUExampleScenario.node[80].veinsmobility 	maxSpeed 	13.999534032957
scalar RSUExampleScenario.node[80].veinsmobility 	totalDistance 	491.38406090023
scalar RSUExampleScenario.node[80].veinsmobility 	totalCO2Emission 	255.04424069464
scalar RSUExampleScenario.node[81].veinsmobility 	startTime 	195.3
scalar RSUExampleScenario.node[81].veinsmobility 	totalTime 	154.7
scalar RSUExampleScenario.node[81].veinsmobility 	stopTime 	350
scalar RSUExampleScenario.node[81].veinsmobility 	minSpeed 	0
scalar RSUExampleScenario.node[81].veinsmobility 	maxSpeed 	13.999786803189
scalar RSUExampleScenario.node[81].veinsmobility 	totalDistance 	455.72668746872
scalar RSUExampleScenario.node[81].veinsmobility 	totalCO2Emission 	246.61306537787
scalar RSUExampleScenario.node[82].veinsmobility 	startTime 	197.7
scalar RSUExampleScenario.node[82].veinsmobility 	totalTime 	152.3
scalar RSUExampleScenario.node[82].veinsmobility 	stopTime 	350
scalar RSUExampleScenario.node[82].veinsmobility 	minSpeed 	0
scalar RSUExampleScenario.node[82].veinsmobility 	maxSpeed 	13.998961455417
scalar RSUExampleScenario.node[82].veinsmobility 	totalDistance 	422.09361516951
scalar RSUExampleScenario.node[82].veinsmobility 	totalCO2Emission 	242.25967248404
scalar RSUExampleScenario.node[83].veinsmobility 	startTime 	200.1
scalar RSUExampleScenario.node[83].veinsmobility 	totalTime 	149.9
scalar RSUExampleScenario.node[83].veinsmobility 	stopTime 	350
scalar RSUExampleScenario.node[83].veinsmobility 	minSpeed 	0
scalar RSUExampleScenario.node[83].veinsmobility 	maxSpeed 	13.999867585532
scalar RSUExampleScenario.node[83].veinsmobility 	totalDistance 	389.16720277247
scalar RSUExampleScenario.node[83].veinsmobility 	totalCO2Emission 	236.74575571786
scalar RSUExampleScenario.node[84].veinsmobility 	startTime 	202.5
scalar RSUExampleScenario.node[84].veinsmobility 	totalTime 	147.5
scalar RSUExampleScenario.node[84].veinsmobility 	stopTime 	350
scalar RSUExampleScenario.node[84].veinsmobility 	minSpeed 	0
scalar RSUExampleScenario.node[84].veinsmobility 	maxSpeed 	13.996836944311
scalar RSUExampleScenario.node[84].veinsmobility 	totalDistance 	356.46225469828
scalar RSUExampleScenario.node[84].veinsmobility 	totalCO2Emission 	231.96047999247
scalar RSUExampleScenario.node[85].veinsmobility 	startTime 	204.9
scalar RSUExampleScenario.node[85].veinsmobility 	totalTime 	145.1
scalar RSUExampleScenario.node[85].veinsmobility 	stopTime 	350
scalar RSUExampleScenario.node[85].veinsmobility 	minSpeed 	0
scalar RSUExampleScenario.node[85].veinsmobility 	maxSpeed 	13.99858681015
scalar RSUExampleScenario.node[85].veinsmobility 	totalDistance 	321.79074343329
scalar RSUExampleScenario.node[85].veinsmobility 	totalCO2Emission 	225.84092945543
scalar RSUExampleScenario.node[86].veinsmobility 	startTime 	207.3
scalar RSUExampleScenario.node[86].veinsmobility 	totalTime 	142.7
scalar RSUExampleScenario.node[86].veinsmobility 	stopTime 	350
scalar RSUExampleScenario.node[86].veinsmobility 	minSpeed 	0
scalar RSUExampleScenario.node[86].veinsmobility 	maxSpeed 	13.955133531285
scalar RSUExampleScenario.node[86].veinsmobility 	totalDistance 	289.46491240429
scalar RSUExampleScenario.node[86].veinsmobility 	totalCO2Emission 	220.80617573406
scalar RSUExampleScenario.node[87].veinsmobility 	startTime 	209.7
scalar RSUExampleScenario.node[87].veinsmobility 	totalTime 	140.3
scalar RSUExampleScenario.node[87].veinsmobility 	stopTime 	350
scalar RSUExampleScenario.node[87].veinsmobility 	minSpeed 	0
scalar RSUExampleScenario.node[87].veinsmobility 	maxSpeed 	13.788806841634
scalar RSUExampleScenario.node[87].veinsmobility 	totalDistance 	248.49364522094
scalar RSUExampleScenario.node[87].veinsmobility 	totalCO2Emission 	200.86517464346
scalar RSUExampleScenario.node[88].veinsmobility 	startTime 	212.1
scalar RSUExampleScenario.node[88].veinsmobility 	totalTime 	137.9
scalar RSUExampleScenario.node[88].veinsmobility 	stopTime 	350
scalar RSUExampleScenario.node[88].veinsmobility 	minSpeed 	0
scalar RSUExampleScenario.node[88].veinsmobility 	maxSpeed 	13.879922775165
scalar RSUExampleScenario.node[88].veinsmobility 	totalDistance 	226.02199709872
scalar RSUExampleScenario.node[88].veinsmobility 	totalCO2Emission 	189.94777003747
scalar RSUExampleScenario.node[89].veinsmobility 	startTime 	214.5
scalar RSUExampleScenario.node[89].veinsmobility 	totalTime 	135.5
scalar RSUExampleScenario.node[89].veinsmobility 	stopTime 	350
scalar RSUExampleScenario.node[89].veinsmobility 	minSpeed 	0
scalar RSUExampleScenario.node[89].veinsmobility 	maxSpeed 	13.856273666066
scalar RSUExampleScenario.node[89].veinsmobility 	totalDistance 	215.19862197263
scalar RSUExampleScenario.node[89].veinsmobility 	totalCO2Emission 	185.36142009394
scalar RSUExampleScenario.node[9].veinsmobility 	startTime 	21.7
scalar RSUExampleScenario.node[9].veinsmobility 	totalTime 	328.3
scalar RSUExampleScenario.node[9].veinsmobility 	stopTime 	350
scalar RSUExampleScenario.node[9].veinsmobility 	minSpeed 	0
scalar RSUExampleScenario.node[9].veinsmobility 	maxSpeed 	13.999906011766
scalar RSUExampleScenario.node[9].veinsmobility 	totalDistance 	2828.7326618871
scalar RSUExampleScenario.node[9].veinsmobility 	totalCO2Emission 	668.0701236699
scalar RSUExampleScenario.node[90].veinsmobility 	startTime 	217
scalar RSUExampleScenario.node[90].veinsmobility 	totalTime 	133
scalar RSUExampleScenario.node[90].veinsmobility 	stopTime 	350
scalar RSUExampleScenario.node[90].veinsmobility 	minSpeed 	0
scalar RSUExampleScenario.node[90].veinsmobility 	maxSpeed 	13.708742449922
scalar RSUExampleScenario.node[90].veinsmobility 	totalDistance 	201.78505801608
scalar RSUExampleScenario.node[90].veinsmobility 	totalCO2Emission 	182.5070678648
scalar RSUExampleScenario.node[91].veinsmobility 	startTime 	219.4
scalar RSUExampleScenario.node[91].veinsmobility 	totalTime 	130.6
scalar RSUExampleScenario.node[91].veinsmobility 	stopTime 	350
scalar RSUExampleScenario.node[91].veinsmobility 	minSpeed 	0
scalar RSUExampleScenario.node[91].veinsmobility 	maxSpeed 	13.870385593995
scalar RSUExampleScenario.node[91].veinsmobility 	totalDistance 	184.92156593269
scalar RSUExampleScenario.node[91].veinsmobility 	totalCO2Emission 	180.7608655244
scalar RSUExampleScenario.node[92].veinsmobility 	startTime 	221.8
scalar RSUExampleScenario.node[92].veinsmobility 	totalTime 	128.2
scalar RSUExampleScenario.node[92].veinsmobility 	stopTime 	350
scalar RSUExampleScenario.node[92].veinsmobility 	minSpeed 	0
scalar RSUExampleScenario.node[92].veinsmobility 	maxSpeed 	13.872787341217
scalar RSUExampleScenario.node[92].veinsmobility 	totalDistance 	150.43128506446
scalar RSUExampleScenario.node[92].veinsmobility 	totalCO2Emission 	166.84577111554
scalar RSUExampleScenario.node[93].veinsmobility 	startTime 	224.2
scalar RSUExampleScenario.node[93].veinsmobility 	totalTime 	125.8
scalar RSUExampleScenario.node[93].veinsmobility 	stopTime 	350
scalar RSUExampleScenario.node[93].veinsmobility 	minSpeed 	0
scalar RSUExampleScenario.node[93].veinsmobility 	maxSpeed 	13.865675261016
scalar RSUExampleScenario.node[93].veinsmobility 	totalDistance 	123.62905753044
scalar RSUExampleScenario.node[93].veinsmobility 	totalCO2Emission 	154.44820256
scalar RSUExampleScenario.node[94].veinsmobility 	startTime 	226.6
scalar RSUExampleScenario.node[94].veinsmobility 	totalTime 	123.4
scalar RSUExampleScenario.node[94].veinsmobility 	stopTime 	350
scalar RSUExampleScenario.node[94].veinsmobility 	minSpeed 	0
scalar RSUExampleScenario.node[94].veinsmobility 	maxSpeed 	13.786615253182
scalar RSUExampleScenario.node[94].veinsmobility 	totalDistance 	112.29255834094
scalar RSUExampleScenario.node[94].veinsmobility 	totalCO2Emission 	148.77148476236
scalar RSUExampleScenario.node[95].veinsmobility 	startTime 	229
scalar RSUExampleScenario.node[95].veinsmobility 	totalTime 	121
scalar RSUExampleScenario.node[95].veinsmobility 	stopTime 	350
scalar RSUExampleScenario.node[95].veinsmobility 	minSpeed 	0
scalar RSUExampleScenario.node[95].veinsmobility 	maxSpeed 	13.827725623923
scalar RSUExampleScenario.node[95].veinsmobility 	totalDistance 	99.29250125261
scalar RSUExampleScenario.node[95].veinsmobility 	totalCO2Emission 	145.1518282679
scalar RSUExampleScenario.node[96].veinsmobility 	startTime 	231.4
scalar RSUExampleScenario.node[96].veinsmobility 	totalTime 	118.6
scalar RSUExampleScenario.node[96].veinsmobility 	stopTime 	350
scalar RSUExampleScenario.node[96].veinsmobility 	minSpeed 	0
scalar RSUExampleScenario.node[96].veinsmobility 	maxSpeed 	13.884099624339
scalar RSUExampleScenario.node[96].veinsmobility 	totalDistance 	83.253770012859
scalar RSUExampleScenario.node[96].veinsmobility 	totalCO2Emission 	142.65960463902
scalar RSUExampleScenario.node[97].veinsmobility 	startTime 	233.8
scalar RSUExampleScenario.node[97].veinsmobility 	totalTime 	116.2
scalar RSUExampleScenario.node[97].veinsmobility 	stopTime 	350
scalar RSUExampleScenario.node[97].veinsmobility 	minSpeed 	0
scalar RSUExampleScenario.node[97].veinsmobility 	maxSpeed 	11.906286047688
scalar RSUExampleScenario.node[97].veinsmobility 	totalDistance 	53.547635370063
scalar RSUExampleScenario.node[97].veinsmobility 	totalCO2Emission 	133.25979657647
scalar RSUExampleScenario.node[98].veinsmobility 	startTime 	236.2
scalar RSUExampleScenario.node[98].veinsmobility 	totalTime 	113.8
scalar RSUExampleScenario.node[98].veinsmobility 	stopTime 	350
scalar RSUExampleScenario.node[98].veinsmobility 	minSpeed 	0
scalar RSUExampleScenario.node[98].veinsmobility 	maxSpeed 	7.6851028632187
scalar RSUExampleScenario.node[98].veinsmobility 	totalDistance 	21.861192808921
scalar RSUExampleScenario.node[98].veinsmobility 	totalCO2Emission 	119.23444537678
scalar RSUExampleScenario.node[99].veinsmobility 	startTime 	238.6
scalar RSUExampleScenario.node[99].veinsmobility 	totalTime 	111.4
scalar RSUExampleScenario.node[99].veinsmobility 	stopTime 	350
scalar RSUExampleScenario.node[99].veinsmobility 	minSpeed 	0
scalar RSUExampleScenario.node[99].veinsmobility 	maxSpeed 	2.879051184234
scalar RSUExampleScenario.node[99].veinsmobility 	totalDistance 	3.0706856426534
scalar RSUExampleScenario.node[99].veinsmobility 	totalCO2Emission 	109.63910988456
