version 2
run statistic-3441-20150311-16:40:20-10504
attr c 7
attr configname statistic
attr datetime 20150311-16:40:20
attr experiment statistic
attr inifile omnetpp.ini
attr iterationvars "$p=1/2, $c=7"
attr iterationvars2 "$p=1/2, $c=7, $repetition=41"
attr measurement "$p=1/2, $c=7"
attr network RSUExampleScenario
attr p 1/2
attr processid 10504
attr repetition 41
attr replication #41
attr resultdir results
attr runnumber 3441
attr seedset 3441

scalar . 	c 	7
scalar RSUExampleScenario.rsu[0].appl 	NumberofCH 	55
scalar RSUExampleScenario.rsu[0].appl 	NumberofON 	45
scalar RSUExampleScenario.rsu[0].appl 	NumberofFN 	0
scalar RSUExampleScenario.rsu[0].appl 	meanClusterNodes 	0.81818181818182
scalar RSUExampleScenario.rsu[0].appl 	varClusterNodes 	0.95519458447736
scalar RSUExampleScenario.rsu[0].appl 	sumCHutility 	nan
scalar RSUExampleScenario.rsu[0].appl 	meanCHutility 	nan
scalar RSUExampleScenario.rsu[0].appl 	varCHutility 	nan
scalar RSUExampleScenario.rsu[0].appl 	sumDiffCHutility 	-16515.332785188
scalar RSUExampleScenario.rsu[0].appl 	meanDiffCHutility 	-300.27877791251
scalar RSUExampleScenario.rsu[0].appl 	varDiffCHutility 	389.91974589268
scalar RSUExampleScenario.rsu[0].appl 	expectedCHutility 	1869.8502329496
scalar RSUExampleScenario.rsu[0].appl 	meanExpectedCHutility 	33.997276962719
scalar RSUExampleScenario.rsu[0].appl 	varExpectedCHutility 	3.7855831685492
