version 2
run statisticRVV-240-20150326-11:06:45-9428
attr c 14
attr configname statisticRVV
attr datetime 20150326-11:06:45
attr experiment statisticRVV
attr inifile omnetpp.ini
attr iterationvars "$sc=\"erlangen-high.launchd.xml\", $p=1/15, $c=14"
attr iterationvars2 "$sc=\"erlangen-high.launchd.xml\", $p=1/15, $c=14, $repetition=0"
attr measurement "$sc=\"erlangen-high.launchd.xml\", $p=1/15, $c=14"
attr network RSUExampleScenario
attr p 1/15
attr processid 9428
attr repetition 0
attr replication #0
attr resultdir results
attr runnumber 240
attr sc "\"erlangen-high.launchd.xml\""
attr seedset 240

scalar . 	c 	14
scalar RSUExampleScenario.node[0].veinsmobility 	startTime 	0.1
scalar RSUExampleScenario.node[0].veinsmobility 	totalTime 	354.2
scalar RSUExampleScenario.node[0].veinsmobility 	stopTime 	354.4
scalar RSUExampleScenario.node[0].veinsmobility 	minSpeed 	0.2561844150268
scalar RSUExampleScenario.node[0].veinsmobility 	maxSpeed 	9.999962919238
scalar RSUExampleScenario.node[0].veinsmobility 	totalDistance 	3409.1021512344
scalar RSUExampleScenario.node[0].veinsmobility 	totalCO2Emission 	722.46674301223
scalar RSUExampleScenario.node[1].veinsmobility 	startTime 	2.2
scalar RSUExampleScenario.node[1].veinsmobility 	totalTime 	355.3
scalar RSUExampleScenario.node[1].veinsmobility 	stopTime 	357.6
scalar RSUExampleScenario.node[1].veinsmobility 	minSpeed 	0.25431936968211
scalar RSUExampleScenario.node[1].veinsmobility 	maxSpeed 	9.9999796560709
scalar RSUExampleScenario.node[1].veinsmobility 	totalDistance 	3414.4128008111
scalar RSUExampleScenario.node[1].veinsmobility 	totalCO2Emission 	719.27104359712
scalar RSUExampleScenario.node[2].veinsmobility 	startTime 	4.4
scalar RSUExampleScenario.node[2].veinsmobility 	totalTime 	356.2
scalar RSUExampleScenario.node[2].veinsmobility 	stopTime 	360.7
scalar RSUExampleScenario.node[2].veinsmobility 	minSpeed 	0.25746822179598
scalar RSUExampleScenario.node[2].veinsmobility 	maxSpeed 	9.9999343682663
scalar RSUExampleScenario.node[2].veinsmobility 	totalDistance 	3409.4972256409
scalar RSUExampleScenario.node[2].veinsmobility 	totalCO2Emission 	725.0037776581
scalar RSUExampleScenario.node[3].veinsmobility 	startTime 	6.6
scalar RSUExampleScenario.node[3].veinsmobility 	totalTime 	357
scalar RSUExampleScenario.node[3].veinsmobility 	stopTime 	363.7
scalar RSUExampleScenario.node[3].veinsmobility 	minSpeed 	0.25541581397899
scalar RSUExampleScenario.node[3].veinsmobility 	maxSpeed 	9.9999270800687
scalar RSUExampleScenario.node[3].veinsmobility 	totalDistance 	3413.7877466379
scalar RSUExampleScenario.node[3].veinsmobility 	totalCO2Emission 	726.66894684123
scalar RSUExampleScenario.node[4].veinsmobility 	startTime 	8.7
scalar RSUExampleScenario.node[4].veinsmobility 	totalTime 	358
scalar RSUExampleScenario.node[4].veinsmobility 	stopTime 	366.8
scalar RSUExampleScenario.node[4].veinsmobility 	minSpeed 	0.25360851428099
scalar RSUExampleScenario.node[4].veinsmobility 	maxSpeed 	9.9999731420376
scalar RSUExampleScenario.node[4].veinsmobility 	totalDistance 	3409.1253640347
scalar RSUExampleScenario.node[4].veinsmobility 	totalCO2Emission 	724.6567347684
scalar RSUExampleScenario.node[5].veinsmobility 	startTime 	10.8
scalar RSUExampleScenario.node[5].veinsmobility 	totalTime 	359.1
scalar RSUExampleScenario.node[5].veinsmobility 	stopTime 	370
scalar RSUExampleScenario.node[5].veinsmobility 	minSpeed 	0.2597786804731
scalar RSUExampleScenario.node[5].veinsmobility 	maxSpeed 	9.9999846343673
scalar RSUExampleScenario.node[5].veinsmobility 	totalDistance 	3418.9521347143
scalar RSUExampleScenario.node[5].veinsmobility 	totalCO2Emission 	722.02158284952
scalar RSUExampleScenario.node[6].veinsmobility 	startTime 	12.9
scalar RSUExampleScenario.node[6].veinsmobility 	totalTime 	360.3
scalar RSUExampleScenario.node[6].veinsmobility 	stopTime 	373.3
scalar RSUExampleScenario.node[6].veinsmobility 	minSpeed 	0.25753974123672
scalar RSUExampleScenario.node[6].veinsmobility 	maxSpeed 	9.9999953000783
scalar RSUExampleScenario.node[6].veinsmobility 	totalDistance 	3409.8183720512
scalar RSUExampleScenario.node[6].veinsmobility 	totalCO2Emission 	724.74908260277
scalar RSUExampleScenario.node[7].veinsmobility 	startTime 	15.1
scalar RSUExampleScenario.node[7].veinsmobility 	totalTime 	361.6
scalar RSUExampleScenario.node[7].veinsmobility 	stopTime 	376.8
scalar RSUExampleScenario.node[7].veinsmobility 	minSpeed 	0.24760080812545
scalar RSUExampleScenario.node[7].veinsmobility 	maxSpeed 	9.9999976920662
scalar RSUExampleScenario.node[7].veinsmobility 	totalDistance 	3419.6867938261
scalar RSUExampleScenario.node[7].veinsmobility 	totalCO2Emission 	728.55553177371
scalar RSUExampleScenario.node[8].veinsmobility 	startTime 	17.2
scalar RSUExampleScenario.node[8].veinsmobility 	totalTime 	363
scalar RSUExampleScenario.node[8].veinsmobility 	stopTime 	380.3
scalar RSUExampleScenario.node[8].veinsmobility 	minSpeed 	0.24902231779997
scalar RSUExampleScenario.node[8].veinsmobility 	maxSpeed 	9.9999982367689
scalar RSUExampleScenario.node[8].veinsmobility 	totalDistance 	3413.5802512963
scalar RSUExampleScenario.node[8].veinsmobility 	totalCO2Emission 	729.57136054367
scalar RSUExampleScenario.node[9].veinsmobility 	startTime 	19.3
scalar RSUExampleScenario.node[9].veinsmobility 	totalTime 	364.6
scalar RSUExampleScenario.node[9].veinsmobility 	stopTime 	384
scalar RSUExampleScenario.node[9].veinsmobility 	minSpeed 	0.25240000052867
scalar RSUExampleScenario.node[9].veinsmobility 	maxSpeed 	9.9999623042834
scalar RSUExampleScenario.node[9].veinsmobility 	totalDistance 	3414.5091609326
scalar RSUExampleScenario.node[9].veinsmobility 	totalCO2Emission 	729.10898128504
scalar RSUExampleScenario.node[10].veinsmobility 	startTime 	21.4
scalar RSUExampleScenario.node[10].veinsmobility 	totalTime 	366.3
scalar RSUExampleScenario.node[10].veinsmobility 	stopTime 	387.8
scalar RSUExampleScenario.node[10].veinsmobility 	minSpeed 	0.24989564967924
scalar RSUExampleScenario.node[10].veinsmobility 	maxSpeed 	9.9999298646022
scalar RSUExampleScenario.node[10].veinsmobility 	totalDistance 	3414.3835102429
scalar RSUExampleScenario.node[10].veinsmobility 	totalCO2Emission 	729.69226551538
scalar RSUExampleScenario.node[11].veinsmobility 	startTime 	23.5
scalar RSUExampleScenario.node[11].veinsmobility 	totalTime 	367.9
scalar RSUExampleScenario.node[11].veinsmobility 	stopTime 	391.5
scalar RSUExampleScenario.node[11].veinsmobility 	minSpeed 	0.25427846752061
scalar RSUExampleScenario.node[11].veinsmobility 	maxSpeed 	9.9999488034612
scalar RSUExampleScenario.node[11].veinsmobility 	totalDistance 	3414.7904329543
scalar RSUExampleScenario.node[11].veinsmobility 	totalCO2Emission 	734.17046164514
scalar RSUExampleScenario.node[12].veinsmobility 	startTime 	25.7
scalar RSUExampleScenario.node[12].veinsmobility 	totalTime 	369.3
scalar RSUExampleScenario.node[12].veinsmobility 	stopTime 	395.1
scalar RSUExampleScenario.node[12].veinsmobility 	minSpeed 	0.25982618130022
scalar RSUExampleScenario.node[12].veinsmobility 	maxSpeed 	9.9999972247891
scalar RSUExampleScenario.node[12].veinsmobility 	totalDistance 	3413.583110306
scalar RSUExampleScenario.node[12].veinsmobility 	totalCO2Emission 	732.73150027057
scalar RSUExampleScenario.node[13].veinsmobility 	startTime 	27.8
scalar RSUExampleScenario.node[13].veinsmobility 	totalTime 	370.9
scalar RSUExampleScenario.node[13].veinsmobility 	stopTime 	398.8
scalar RSUExampleScenario.node[13].veinsmobility 	minSpeed 	0.25786279268563
scalar RSUExampleScenario.node[13].veinsmobility 	maxSpeed 	9.9999849736108
scalar RSUExampleScenario.node[13].veinsmobility 	totalDistance 	3415.0449333869
scalar RSUExampleScenario.node[13].veinsmobility 	totalCO2Emission 	734.80790758908
scalar RSUExampleScenario.node[14].veinsmobility 	startTime 	29.9
scalar RSUExampleScenario.node[14].veinsmobility 	totalTime 	372.5
scalar RSUExampleScenario.node[14].veinsmobility 	stopTime 	402.5
scalar RSUExampleScenario.node[14].veinsmobility 	minSpeed 	0.2559818477598
scalar RSUExampleScenario.node[14].veinsmobility 	maxSpeed 	9.9999729212327
scalar RSUExampleScenario.node[14].veinsmobility 	totalDistance 	3414.2417938587
scalar RSUExampleScenario.node[14].veinsmobility 	totalCO2Emission 	736.67040561022
scalar RSUExampleScenario.node[15].veinsmobility 	startTime 	32
scalar RSUExampleScenario.node[15].veinsmobility 	totalTime 	374.1
scalar RSUExampleScenario.node[15].veinsmobility 	stopTime 	406.2
scalar RSUExampleScenario.node[15].veinsmobility 	minSpeed 	0.25665306914621
scalar RSUExampleScenario.node[15].veinsmobility 	maxSpeed 	9.9999319274258
scalar RSUExampleScenario.node[15].veinsmobility 	totalDistance 	3414.9080854752
scalar RSUExampleScenario.node[15].veinsmobility 	totalCO2Emission 	735.1769711045
scalar RSUExampleScenario.node[16].veinsmobility 	startTime 	34.1
scalar RSUExampleScenario.node[16].veinsmobility 	totalTime 	375.8
scalar RSUExampleScenario.node[16].veinsmobility 	stopTime 	410
scalar RSUExampleScenario.node[16].veinsmobility 	minSpeed 	0.24919055634271
scalar RSUExampleScenario.node[16].veinsmobility 	maxSpeed 	9.9998887308966
scalar RSUExampleScenario.node[16].veinsmobility 	totalDistance 	3414.5087169013
scalar RSUExampleScenario.node[16].veinsmobility 	totalCO2Emission 	739.45297517004
scalar RSUExampleScenario.node[17].veinsmobility 	startTime 	36.2
scalar RSUExampleScenario.node[17].veinsmobility 	totalTime 	377.4
scalar RSUExampleScenario.node[17].veinsmobility 	stopTime 	413.7
scalar RSUExampleScenario.node[17].veinsmobility 	minSpeed 	0.24893466583267
scalar RSUExampleScenario.node[17].veinsmobility 	maxSpeed 	9.9999989784858
scalar RSUExampleScenario.node[17].veinsmobility 	totalDistance 	3415.0789771314
scalar RSUExampleScenario.node[17].veinsmobility 	totalCO2Emission 	746.61414312897
scalar RSUExampleScenario.node[18].veinsmobility 	startTime 	38.3
scalar RSUExampleScenario.node[18].veinsmobility 	totalTime 	379
scalar RSUExampleScenario.node[18].veinsmobility 	stopTime 	417.4
scalar RSUExampleScenario.node[18].veinsmobility 	minSpeed 	0.25062483617035
scalar RSUExampleScenario.node[18].veinsmobility 	maxSpeed 	9.999960732921
scalar RSUExampleScenario.node[18].veinsmobility 	totalDistance 	3413.8469103669
scalar RSUExampleScenario.node[18].veinsmobility 	totalCO2Emission 	743.23999626854
scalar RSUExampleScenario.node[19].veinsmobility 	startTime 	40.4
scalar RSUExampleScenario.node[19].veinsmobility 	totalTime 	380.7
scalar RSUExampleScenario.node[19].veinsmobility 	stopTime 	421.2
scalar RSUExampleScenario.node[19].veinsmobility 	minSpeed 	0.25518320635264
scalar RSUExampleScenario.node[19].veinsmobility 	maxSpeed 	9.9999608289613
scalar RSUExampleScenario.node[19].veinsmobility 	totalDistance 	3415.1567091709
scalar RSUExampleScenario.node[19].veinsmobility 	totalCO2Emission 	744.07662861503
scalar RSUExampleScenario.node[20].veinsmobility 	startTime 	42.5
scalar RSUExampleScenario.node[20].veinsmobility 	totalTime 	382.2
scalar RSUExampleScenario.node[20].veinsmobility 	stopTime 	424.8
scalar RSUExampleScenario.node[20].veinsmobility 	minSpeed 	0.25905683049629
scalar RSUExampleScenario.node[20].veinsmobility 	maxSpeed 	9.9999479249027
scalar RSUExampleScenario.node[20].veinsmobility 	totalDistance 	3413.7469659939
scalar RSUExampleScenario.node[20].veinsmobility 	totalCO2Emission 	746.11261234287
scalar RSUExampleScenario.node[21].veinsmobility 	startTime 	44.6
scalar RSUExampleScenario.node[21].veinsmobility 	totalTime 	383.8
scalar RSUExampleScenario.node[21].veinsmobility 	stopTime 	428.5
scalar RSUExampleScenario.node[21].veinsmobility 	minSpeed 	0.25547167746257
scalar RSUExampleScenario.node[21].veinsmobility 	maxSpeed 	9.9999350332539
scalar RSUExampleScenario.node[21].veinsmobility 	totalDistance 	3415.2437894511
scalar RSUExampleScenario.node[21].veinsmobility 	totalCO2Emission 	746.39136724358
scalar RSUExampleScenario.node[22].veinsmobility 	startTime 	46.8
scalar RSUExampleScenario.node[22].veinsmobility 	totalTime 	385.2
scalar RSUExampleScenario.node[22].veinsmobility 	stopTime 	432.1
scalar RSUExampleScenario.node[22].veinsmobility 	minSpeed 	0.25778148502391
scalar RSUExampleScenario.node[22].veinsmobility 	maxSpeed 	9.9999643436191
scalar RSUExampleScenario.node[22].veinsmobility 	totalDistance 	3413.6978711996
scalar RSUExampleScenario.node[22].veinsmobility 	totalCO2Emission 	749.76146211547
scalar RSUExampleScenario.node[23].veinsmobility 	startTime 	48.9
scalar RSUExampleScenario.node[23].veinsmobility 	totalTime 	386.8
scalar RSUExampleScenario.node[23].veinsmobility 	stopTime 	435.8
scalar RSUExampleScenario.node[23].veinsmobility 	minSpeed 	0.25525708030048
scalar RSUExampleScenario.node[23].veinsmobility 	maxSpeed 	9.9999997969321
scalar RSUExampleScenario.node[23].veinsmobility 	totalDistance 	3414.6590874365
scalar RSUExampleScenario.node[23].veinsmobility 	totalCO2Emission 	749.09938223762
scalar RSUExampleScenario.node[24].veinsmobility 	startTime 	51.1
scalar RSUExampleScenario.node[24].veinsmobility 	totalTime 	388.3
scalar RSUExampleScenario.node[24].veinsmobility 	stopTime 	439.5
scalar RSUExampleScenario.node[24].veinsmobility 	minSpeed 	0.25893156064046
scalar RSUExampleScenario.node[24].veinsmobility 	maxSpeed 	9.9999656323087
scalar RSUExampleScenario.node[24].veinsmobility 	totalDistance 	3414.3935079835
scalar RSUExampleScenario.node[24].veinsmobility 	totalCO2Emission 	752.94949467991
scalar RSUExampleScenario.node[25].veinsmobility 	startTime 	53.3
scalar RSUExampleScenario.node[25].veinsmobility 	totalTime 	389.7
scalar RSUExampleScenario.node[25].veinsmobility 	stopTime 	443.1
scalar RSUExampleScenario.node[25].veinsmobility 	minSpeed 	0.25055776390457
scalar RSUExampleScenario.node[25].veinsmobility 	maxSpeed 	9.9999636911927
scalar RSUExampleScenario.node[25].veinsmobility 	totalDistance 	3414.6534183707
scalar RSUExampleScenario.node[25].veinsmobility 	totalCO2Emission 	752.24565597011
scalar RSUExampleScenario.node[26].veinsmobility 	startTime 	55.4
scalar RSUExampleScenario.node[26].veinsmobility 	totalTime 	391.3
scalar RSUExampleScenario.node[26].veinsmobility 	stopTime 	446.8
scalar RSUExampleScenario.node[26].veinsmobility 	minSpeed 	0.25072873374843
scalar RSUExampleScenario.node[26].veinsmobility 	maxSpeed 	9.9999592503649
scalar RSUExampleScenario.node[26].veinsmobility 	totalDistance 	3414.3304234597
scalar RSUExampleScenario.node[26].veinsmobility 	totalCO2Emission 	753.07811954759
scalar RSUExampleScenario.node[27].veinsmobility 	startTime 	57.5
scalar RSUExampleScenario.node[27].veinsmobility 	totalTime 	392.9
scalar RSUExampleScenario.node[27].veinsmobility 	stopTime 	450.5
scalar RSUExampleScenario.node[27].veinsmobility 	minSpeed 	0.25035558019648
scalar RSUExampleScenario.node[27].veinsmobility 	maxSpeed 	9.9999910786632
scalar RSUExampleScenario.node[27].veinsmobility 	totalDistance 	3414.7220575599
scalar RSUExampleScenario.node[27].veinsmobility 	totalCO2Emission 	754.73831068306
scalar RSUExampleScenario.node[28].veinsmobility 	startTime 	59.6
scalar RSUExampleScenario.node[28].veinsmobility 	totalTime 	394.5
scalar RSUExampleScenario.node[28].veinsmobility 	stopTime 	454.2
scalar RSUExampleScenario.node[28].veinsmobility 	minSpeed 	0.2515339619955
scalar RSUExampleScenario.node[28].veinsmobility 	maxSpeed 	9.9999835753208
scalar RSUExampleScenario.node[28].veinsmobility 	totalDistance 	3414.0377337505
scalar RSUExampleScenario.node[28].veinsmobility 	totalCO2Emission 	759.06986891367
scalar RSUExampleScenario.node[29].veinsmobility 	startTime 	61.7
scalar RSUExampleScenario.node[29].veinsmobility 	totalTime 	396
scalar RSUExampleScenario.node[29].veinsmobility 	stopTime 	457.8
scalar RSUExampleScenario.node[29].veinsmobility 	minSpeed 	0.25665855670138
scalar RSUExampleScenario.node[29].veinsmobility 	maxSpeed 	9.999991823982
scalar RSUExampleScenario.node[29].veinsmobility 	totalDistance 	3414.7328327006
scalar RSUExampleScenario.node[29].veinsmobility 	totalCO2Emission 	760.25935058585
scalar RSUExampleScenario.node[30].veinsmobility 	startTime 	63.8
scalar RSUExampleScenario.node[30].veinsmobility 	totalTime 	397.5
scalar RSUExampleScenario.node[30].veinsmobility 	stopTime 	461.4
scalar RSUExampleScenario.node[30].veinsmobility 	minSpeed 	0.2577794201239
scalar RSUExampleScenario.node[30].veinsmobility 	maxSpeed 	9.9999949565972
scalar RSUExampleScenario.node[30].veinsmobility 	totalDistance 	3413.9571792386
scalar RSUExampleScenario.node[30].veinsmobility 	totalCO2Emission 	759.89257143547
scalar RSUExampleScenario.node[31].veinsmobility 	startTime 	66
scalar RSUExampleScenario.node[31].veinsmobility 	totalTime 	399
scalar RSUExampleScenario.node[31].veinsmobility 	stopTime 	465.1
scalar RSUExampleScenario.node[31].veinsmobility 	minSpeed 	0.25778173649637
scalar RSUExampleScenario.node[31].veinsmobility 	maxSpeed 	9.999947005331
scalar RSUExampleScenario.node[31].veinsmobility 	totalDistance 	3415.119783456
scalar RSUExampleScenario.node[31].veinsmobility 	totalCO2Emission 	761.12097653126
scalar RSUExampleScenario.node[32].veinsmobility 	startTime 	68.1
scalar RSUExampleScenario.node[32].veinsmobility 	totalTime 	400.5
scalar RSUExampleScenario.node[32].veinsmobility 	stopTime 	468.7
scalar RSUExampleScenario.node[32].veinsmobility 	minSpeed 	0.25397309780144
scalar RSUExampleScenario.node[32].veinsmobility 	maxSpeed 	9.9999427248933
scalar RSUExampleScenario.node[32].veinsmobility 	totalDistance 	3413.9033922407
scalar RSUExampleScenario.node[32].veinsmobility 	totalCO2Emission 	762.19226739603
scalar RSUExampleScenario.node[33].veinsmobility 	startTime 	70.2
scalar RSUExampleScenario.node[33].veinsmobility 	totalTime 	402.1
scalar RSUExampleScenario.node[33].veinsmobility 	stopTime 	472.4
scalar RSUExampleScenario.node[33].veinsmobility 	minSpeed 	0.24867285555578
scalar RSUExampleScenario.node[33].veinsmobility 	maxSpeed 	9.9999767415365
scalar RSUExampleScenario.node[33].veinsmobility 	totalDistance 	3414.8743351229
scalar RSUExampleScenario.node[33].veinsmobility 	totalCO2Emission 	764.56864191978
scalar RSUExampleScenario.node[34].veinsmobility 	startTime 	72.3
scalar RSUExampleScenario.node[34].veinsmobility 	totalTime 	403.7
scalar RSUExampleScenario.node[34].veinsmobility 	stopTime 	476.1
scalar RSUExampleScenario.node[34].veinsmobility 	minSpeed 	0.2501948897806
scalar RSUExampleScenario.node[34].veinsmobility 	maxSpeed 	9.9999977900437
scalar RSUExampleScenario.node[34].veinsmobility 	totalDistance 	3413.957428159
scalar RSUExampleScenario.node[34].veinsmobility 	totalCO2Emission 	770.56598920085
scalar RSUExampleScenario.node[35].veinsmobility 	startTime 	74.4
scalar RSUExampleScenario.node[35].veinsmobility 	totalTime 	405.3
scalar RSUExampleScenario.node[35].veinsmobility 	stopTime 	479.8
scalar RSUExampleScenario.node[35].veinsmobility 	minSpeed 	0.25421333352569
scalar RSUExampleScenario.node[35].veinsmobility 	maxSpeed 	9.9999953655479
scalar RSUExampleScenario.node[35].veinsmobility 	totalDistance 	3415.1784507503
scalar RSUExampleScenario.node[35].veinsmobility 	totalCO2Emission 	768.62567974332
scalar RSUExampleScenario.node[36].veinsmobility 	startTime 	76.5
scalar RSUExampleScenario.node[36].veinsmobility 	totalTime 	406.9
scalar RSUExampleScenario.node[36].veinsmobility 	stopTime 	483.5
scalar RSUExampleScenario.node[36].veinsmobility 	minSpeed 	0.24966272719018
scalar RSUExampleScenario.node[36].veinsmobility 	maxSpeed 	9.9999993186072
scalar RSUExampleScenario.node[36].veinsmobility 	totalDistance 	3414.5589336055
scalar RSUExampleScenario.node[36].veinsmobility 	totalCO2Emission 	774.70559489388
scalar RSUExampleScenario.node[37].veinsmobility 	startTime 	78.6
scalar RSUExampleScenario.node[37].veinsmobility 	totalTime 	408.6
scalar RSUExampleScenario.node[37].veinsmobility 	stopTime 	487.3
scalar RSUExampleScenario.node[37].veinsmobility 	minSpeed 	0.24715505878208
scalar RSUExampleScenario.node[37].veinsmobility 	maxSpeed 	9.9999702029256
scalar RSUExampleScenario.node[37].veinsmobility 	totalDistance 	3414.8990641274
scalar RSUExampleScenario.node[37].veinsmobility 	totalCO2Emission 	772.61741895306
scalar RSUExampleScenario.node[38].veinsmobility 	startTime 	80.7
scalar RSUExampleScenario.node[38].veinsmobility 	totalTime 	410.2
scalar RSUExampleScenario.node[38].veinsmobility 	stopTime 	491
scalar RSUExampleScenario.node[38].veinsmobility 	minSpeed 	0.25499585099635
scalar RSUExampleScenario.node[38].veinsmobility 	maxSpeed 	9.9999249529559
scalar RSUExampleScenario.node[38].veinsmobility 	totalDistance 	3414.442102381
scalar RSUExampleScenario.node[38].veinsmobility 	totalCO2Emission 	775.26461349966
scalar RSUExampleScenario.node[39].veinsmobility 	startTime 	82.8
scalar RSUExampleScenario.node[39].veinsmobility 	totalTime 	411.8
scalar RSUExampleScenario.node[39].veinsmobility 	stopTime 	494.7
scalar RSUExampleScenario.node[39].veinsmobility 	minSpeed 	0.25747750089434
scalar RSUExampleScenario.node[39].veinsmobility 	maxSpeed 	9.9999538388127
scalar RSUExampleScenario.node[39].veinsmobility 	totalDistance 	3415.0578341032
scalar RSUExampleScenario.node[39].veinsmobility 	totalCO2Emission 	774.48111327414
scalar RSUExampleScenario.node[40].veinsmobility 	startTime 	84.9
scalar RSUExampleScenario.node[40].veinsmobility 	totalTime 	413.4
scalar RSUExampleScenario.node[40].veinsmobility 	stopTime 	498.4
scalar RSUExampleScenario.node[40].veinsmobility 	minSpeed 	0.24750420639059
scalar RSUExampleScenario.node[40].veinsmobility 	maxSpeed 	9.999997917593
scalar RSUExampleScenario.node[40].veinsmobility 	totalDistance 	3414.2779878949
scalar RSUExampleScenario.node[40].veinsmobility 	totalCO2Emission 	777.36248396076
scalar RSUExampleScenario.node[41].veinsmobility 	startTime 	87.1
scalar RSUExampleScenario.node[41].veinsmobility 	totalTime 	414.9
scalar RSUExampleScenario.node[41].veinsmobility 	stopTime 	502.1
scalar RSUExampleScenario.node[41].veinsmobility 	minSpeed 	0.2521475531077
scalar RSUExampleScenario.node[41].veinsmobility 	maxSpeed 	9.9999956354173
scalar RSUExampleScenario.node[41].veinsmobility 	totalDistance 	3414.8159380368
scalar RSUExampleScenario.node[41].veinsmobility 	totalCO2Emission 	780.9554267716
scalar RSUExampleScenario.node[42].veinsmobility 	startTime 	89.2
scalar RSUExampleScenario.node[42].veinsmobility 	totalTime 	416.5
scalar RSUExampleScenario.node[42].veinsmobility 	stopTime 	505.8
scalar RSUExampleScenario.node[42].veinsmobility 	minSpeed 	0.24895760351606
scalar RSUExampleScenario.node[42].veinsmobility 	maxSpeed 	9.9999824565859
scalar RSUExampleScenario.node[42].veinsmobility 	totalDistance 	3414.3134165666
scalar RSUExampleScenario.node[42].veinsmobility 	totalCO2Emission 	781.07186848623
scalar RSUExampleScenario.node[43].veinsmobility 	startTime 	91.4
scalar RSUExampleScenario.node[43].veinsmobility 	totalTime 	418
scalar RSUExampleScenario.node[43].veinsmobility 	stopTime 	509.5
scalar RSUExampleScenario.node[43].veinsmobility 	minSpeed 	0.25018373430031
scalar RSUExampleScenario.node[43].veinsmobility 	maxSpeed 	9.9998640188435
scalar RSUExampleScenario.node[43].veinsmobility 	totalDistance 	3415.1621871548
scalar RSUExampleScenario.node[43].veinsmobility 	totalCO2Emission 	782.7610203794
scalar RSUExampleScenario.node[44].veinsmobility 	startTime 	93.6
scalar RSUExampleScenario.node[44].veinsmobility 	totalTime 	419.5
scalar RSUExampleScenario.node[44].veinsmobility 	stopTime 	513.2
scalar RSUExampleScenario.node[44].veinsmobility 	minSpeed 	0.25225093588186
scalar RSUExampleScenario.node[44].veinsmobility 	maxSpeed 	9.9999099810189
scalar RSUExampleScenario.node[44].veinsmobility 	totalDistance 	3414.6090276603
scalar RSUExampleScenario.node[44].veinsmobility 	totalCO2Emission 	781.95441761218
scalar RSUExampleScenario.node[45].veinsmobility 	startTime 	95.7
scalar RSUExampleScenario.node[45].veinsmobility 	totalTime 	421.1
scalar RSUExampleScenario.node[45].veinsmobility 	stopTime 	516.9
scalar RSUExampleScenario.node[45].veinsmobility 	minSpeed 	0.25443283309625
scalar RSUExampleScenario.node[45].veinsmobility 	maxSpeed 	9.9999320238899
scalar RSUExampleScenario.node[45].veinsmobility 	totalDistance 	3415.1843346131
scalar RSUExampleScenario.node[45].veinsmobility 	totalCO2Emission 	784.13864499034
scalar RSUExampleScenario.node[46].veinsmobility 	startTime 	97.9
scalar RSUExampleScenario.node[46].veinsmobility 	totalTime 	422.6
scalar RSUExampleScenario.node[46].veinsmobility 	stopTime 	520.6
scalar RSUExampleScenario.node[46].veinsmobility 	minSpeed 	0.25015171079477
scalar RSUExampleScenario.node[46].veinsmobility 	maxSpeed 	9.9999734284938
scalar RSUExampleScenario.node[46].veinsmobility 	totalDistance 	3414.4567106211
scalar RSUExampleScenario.node[46].veinsmobility 	totalCO2Emission 	786.53153888321
scalar RSUExampleScenario.node[47].veinsmobility 	startTime 	100
scalar RSUExampleScenario.node[47].veinsmobility 	totalTime 	424.3
scalar RSUExampleScenario.node[47].veinsmobility 	stopTime 	524.4
scalar RSUExampleScenario.node[47].veinsmobility 	minSpeed 	0.25154586549453
scalar RSUExampleScenario.node[47].veinsmobility 	maxSpeed 	9.9999740300095
scalar RSUExampleScenario.node[47].veinsmobility 	totalDistance 	3415.4730821644
scalar RSUExampleScenario.node[47].veinsmobility 	totalCO2Emission 	787.46617291758
scalar RSUExampleScenario.node[48].veinsmobility 	startTime 	102.1
scalar RSUExampleScenario.node[48].veinsmobility 	totalTime 	425.9
scalar RSUExampleScenario.node[48].veinsmobility 	stopTime 	528.1
scalar RSUExampleScenario.node[48].veinsmobility 	minSpeed 	0.24943241944932
scalar RSUExampleScenario.node[48].veinsmobility 	maxSpeed 	9.9999611482886
scalar RSUExampleScenario.node[48].veinsmobility 	totalDistance 	3414.4805315206
scalar RSUExampleScenario.node[48].veinsmobility 	totalCO2Emission 	790.98972043757
scalar RSUExampleScenario.node[49].veinsmobility 	startTime 	104.2
scalar RSUExampleScenario.node[49].veinsmobility 	totalTime 	427.5
scalar RSUExampleScenario.node[49].veinsmobility 	stopTime 	531.8
scalar RSUExampleScenario.node[49].veinsmobility 	minSpeed 	0.25981756333937
scalar RSUExampleScenario.node[49].veinsmobility 	maxSpeed 	9.999994718025
scalar RSUExampleScenario.node[49].veinsmobility 	totalDistance 	3414.7195809261
scalar RSUExampleScenario.node[49].veinsmobility 	totalCO2Emission 	789.67392890106
scalar RSUExampleScenario.node[50].veinsmobility 	startTime 	106.3
scalar RSUExampleScenario.node[50].veinsmobility 	totalTime 	429
scalar RSUExampleScenario.node[50].veinsmobility 	stopTime 	535.4
scalar RSUExampleScenario.node[50].veinsmobility 	minSpeed 	0.24841659038863
scalar RSUExampleScenario.node[50].veinsmobility 	maxSpeed 	9.999992452981
scalar RSUExampleScenario.node[50].veinsmobility 	totalDistance 	3413.8932250329
scalar RSUExampleScenario.node[50].veinsmobility 	totalCO2Emission 	790.83232983533
scalar RSUExampleScenario.node[51].veinsmobility 	startTime 	108.5
scalar RSUExampleScenario.node[51].veinsmobility 	totalTime 	430.5
scalar RSUExampleScenario.node[51].veinsmobility 	stopTime 	539.1
scalar RSUExampleScenario.node[51].veinsmobility 	minSpeed 	0.24849168314948
scalar RSUExampleScenario.node[51].veinsmobility 	maxSpeed 	9.9999751386652
scalar RSUExampleScenario.node[51].veinsmobility 	totalDistance 	3415.1362762342
scalar RSUExampleScenario.node[51].veinsmobility 	totalCO2Emission 	795.42565309692
scalar RSUExampleScenario.node[52].veinsmobility 	startTime 	110.7
scalar RSUExampleScenario.node[52].veinsmobility 	totalTime 	432
scalar RSUExampleScenario.node[52].veinsmobility 	stopTime 	542.8
scalar RSUExampleScenario.node[52].veinsmobility 	minSpeed 	0.24802273325436
scalar RSUExampleScenario.node[52].veinsmobility 	maxSpeed 	9.9999853852554
scalar RSUExampleScenario.node[52].veinsmobility 	totalDistance 	3414.2712563625
scalar RSUExampleScenario.node[52].veinsmobility 	totalCO2Emission 	798.60398645382
scalar RSUExampleScenario.node[53].veinsmobility 	startTime 	112.8
scalar RSUExampleScenario.node[53].veinsmobility 	totalTime 	433.6
scalar RSUExampleScenario.node[53].veinsmobility 	stopTime 	546.5
scalar RSUExampleScenario.node[53].veinsmobility 	minSpeed 	0.25633335313224
scalar RSUExampleScenario.node[53].veinsmobility 	maxSpeed 	9.9999811893865
scalar RSUExampleScenario.node[53].veinsmobility 	totalDistance 	3415.5071694331
scalar RSUExampleScenario.node[53].veinsmobility 	totalCO2Emission 	796.01089346207
scalar RSUExampleScenario.node[54].veinsmobility 	startTime 	114.9
scalar RSUExampleScenario.node[54].veinsmobility 	totalTime 	435.2
scalar RSUExampleScenario.node[54].veinsmobility 	stopTime 	550.2
scalar RSUExampleScenario.node[54].veinsmobility 	minSpeed 	0.25160640312359
scalar RSUExampleScenario.node[54].veinsmobility 	maxSpeed 	9.9999270595168
scalar RSUExampleScenario.node[54].veinsmobility 	totalDistance 	3414.2485398065
scalar RSUExampleScenario.node[54].veinsmobility 	totalCO2Emission 	802.89847993641
scalar RSUExampleScenario.node[55].veinsmobility 	startTime 	117
scalar RSUExampleScenario.node[55].veinsmobility 	totalTime 	436.8
scalar RSUExampleScenario.node[55].veinsmobility 	stopTime 	553.9
scalar RSUExampleScenario.node[55].veinsmobility 	minSpeed 	0.24909808482253
scalar RSUExampleScenario.node[55].veinsmobility 	maxSpeed 	9.9999394702981
scalar RSUExampleScenario.node[55].veinsmobility 	totalDistance 	3414.9735419773
scalar RSUExampleScenario.node[55].veinsmobility 	totalCO2Emission 	800.89992368312
scalar RSUExampleScenario.node[56].veinsmobility 	startTime 	119.1
scalar RSUExampleScenario.node[56].veinsmobility 	totalTime 	438.4
scalar RSUExampleScenario.node[56].veinsmobility 	stopTime 	557.6
scalar RSUExampleScenario.node[56].veinsmobility 	minSpeed 	0.25878405895061
scalar RSUExampleScenario.node[56].veinsmobility 	maxSpeed 	9.999937469312
scalar RSUExampleScenario.node[56].veinsmobility 	totalDistance 	3414.2008812939
scalar RSUExampleScenario.node[56].veinsmobility 	totalCO2Emission 	804.26310935226
scalar RSUExampleScenario.node[57].veinsmobility 	startTime 	121.2
scalar RSUExampleScenario.node[57].veinsmobility 	totalTime 	440
scalar RSUExampleScenario.node[57].veinsmobility 	stopTime 	561.3
scalar RSUExampleScenario.node[57].veinsmobility 	minSpeed 	0.24741907604598
scalar RSUExampleScenario.node[57].veinsmobility 	maxSpeed 	9.9998739741952
scalar RSUExampleScenario.node[57].veinsmobility 	totalDistance 	3415.1812721634
scalar RSUExampleScenario.node[57].veinsmobility 	totalCO2Emission 	806.70059185706
scalar RSUExampleScenario.node[58].veinsmobility 	startTime 	123.4
scalar RSUExampleScenario.node[58].veinsmobility 	totalTime 	441.5
scalar RSUExampleScenario.node[58].veinsmobility 	stopTime 	565
scalar RSUExampleScenario.node[58].veinsmobility 	minSpeed 	0.25669235399249
scalar RSUExampleScenario.node[58].veinsmobility 	maxSpeed 	9.9999328054092
scalar RSUExampleScenario.node[58].veinsmobility 	totalDistance 	3414.5056781961
scalar RSUExampleScenario.node[58].veinsmobility 	totalCO2Emission 	808.20572575098
scalar RSUExampleScenario.node[59].veinsmobility 	startTime 	125.5
scalar RSUExampleScenario.node[59].veinsmobility 	totalTime 	443.1
scalar RSUExampleScenario.node[59].veinsmobility 	stopTime 	568.7
scalar RSUExampleScenario.node[59].veinsmobility 	minSpeed 	0.2507483367899
scalar RSUExampleScenario.node[59].veinsmobility 	maxSpeed 	9.9999325644458
scalar RSUExampleScenario.node[59].veinsmobility 	totalDistance 	3415.2412405069
scalar RSUExampleScenario.node[59].veinsmobility 	totalCO2Emission 	807.27311506595
scalar RSUExampleScenario.node[60].veinsmobility 	startTime 	127.6
scalar RSUExampleScenario.node[60].veinsmobility 	totalTime 	444.7
scalar RSUExampleScenario.node[60].veinsmobility 	stopTime 	572.4
scalar RSUExampleScenario.node[60].veinsmobility 	minSpeed 	0.25774369381182
scalar RSUExampleScenario.node[60].veinsmobility 	maxSpeed 	9.9999957517372
scalar RSUExampleScenario.node[60].veinsmobility 	totalDistance 	3414.4589391133
scalar RSUExampleScenario.node[60].veinsmobility 	totalCO2Emission 	812.35366590642
scalar RSUExampleScenario.node[61].veinsmobility 	startTime 	129.7
scalar RSUExampleScenario.node[61].veinsmobility 	totalTime 	446.3
scalar RSUExampleScenario.node[61].veinsmobility 	stopTime 	576.1
scalar RSUExampleScenario.node[61].veinsmobility 	minSpeed 	0.24761558894138
scalar RSUExampleScenario.node[61].veinsmobility 	maxSpeed 	9.999984567808
scalar RSUExampleScenario.node[61].veinsmobility 	totalDistance 	3415.1354854443
scalar RSUExampleScenario.node[61].veinsmobility 	totalCO2Emission 	808.50842351553
scalar RSUExampleScenario.node[62].veinsmobility 	startTime 	131.9
scalar RSUExampleScenario.node[62].veinsmobility 	totalTime 	447.9
scalar RSUExampleScenario.node[62].veinsmobility 	stopTime 	579.9
scalar RSUExampleScenario.node[62].veinsmobility 	minSpeed 	0.25062130953255
scalar RSUExampleScenario.node[62].veinsmobility 	maxSpeed 	9.9999555382994
scalar RSUExampleScenario.node[62].veinsmobility 	totalDistance 	3414.5195749339
scalar RSUExampleScenario.node[62].veinsmobility 	totalCO2Emission 	812.59965550349
scalar RSUExampleScenario.node[63].veinsmobility 	startTime 	134
scalar RSUExampleScenario.node[63].veinsmobility 	totalTime 	449.5
scalar RSUExampleScenario.node[63].veinsmobility 	stopTime 	583.6
scalar RSUExampleScenario.node[63].veinsmobility 	minSpeed 	0.25101972824265
scalar RSUExampleScenario.node[63].veinsmobility 	maxSpeed 	9.9999398019444
scalar RSUExampleScenario.node[63].veinsmobility 	totalDistance 	3415.4240784776
scalar RSUExampleScenario.node[63].veinsmobility 	totalCO2Emission 	811.16883405693
scalar RSUExampleScenario.node[64].veinsmobility 	startTime 	136.1
scalar RSUExampleScenario.node[64].veinsmobility 	totalTime 	451.1
scalar RSUExampleScenario.node[64].veinsmobility 	stopTime 	587.3
scalar RSUExampleScenario.node[64].veinsmobility 	minSpeed 	0.2498950118057
scalar RSUExampleScenario.node[64].veinsmobility 	maxSpeed 	9.9999424399808
scalar RSUExampleScenario.node[64].veinsmobility 	totalDistance 	3413.8744016658
scalar RSUExampleScenario.node[64].veinsmobility 	totalCO2Emission 	817.65766143357
scalar RSUExampleScenario.node[65].veinsmobility 	startTime 	138.3
scalar RSUExampleScenario.node[65].veinsmobility 	totalTime 	452.6
scalar RSUExampleScenario.node[65].veinsmobility 	stopTime 	591
scalar RSUExampleScenario.node[65].veinsmobility 	minSpeed 	0.24765534290811
scalar RSUExampleScenario.node[65].veinsmobility 	maxSpeed 	9.9999885556148
scalar RSUExampleScenario.node[65].veinsmobility 	totalDistance 	3415.4066857977
scalar RSUExampleScenario.node[65].veinsmobility 	totalCO2Emission 	815.15397810295
scalar RSUExampleScenario.node[66].veinsmobility 	startTime 	140.4
scalar RSUExampleScenario.node[66].veinsmobility 	totalTime 	454.2
scalar RSUExampleScenario.node[66].veinsmobility 	stopTime 	594.7
scalar RSUExampleScenario.node[66].veinsmobility 	minSpeed 	0.24898604186368
scalar RSUExampleScenario.node[66].veinsmobility 	maxSpeed 	9.9999737799051
scalar RSUExampleScenario.node[66].veinsmobility 	totalDistance 	3414.5152936374
scalar RSUExampleScenario.node[66].veinsmobility 	totalCO2Emission 	819.18774590013
scalar RSUExampleScenario.node[67].veinsmobility 	startTime 	142.6
scalar RSUExampleScenario.node[67].veinsmobility 	totalTime 	455.6
scalar RSUExampleScenario.node[67].veinsmobility 	stopTime 	598.3
scalar RSUExampleScenario.node[67].veinsmobility 	minSpeed 	0.25135880949767
scalar RSUExampleScenario.node[67].veinsmobility 	maxSpeed 	9.9999555556127
scalar RSUExampleScenario.node[67].veinsmobility 	totalDistance 	3414.9548397622
scalar RSUExampleScenario.node[67].veinsmobility 	totalCO2Emission 	819.28226571927
scalar RSUExampleScenario.node[68].veinsmobility 	startTime 	144.8
scalar RSUExampleScenario.node[68].veinsmobility 	totalTime 	457
scalar RSUExampleScenario.node[68].veinsmobility 	stopTime 	601.9
scalar RSUExampleScenario.node[68].veinsmobility 	minSpeed 	0.24969845922897
scalar RSUExampleScenario.node[68].veinsmobility 	maxSpeed 	9.9999273938267
scalar RSUExampleScenario.node[68].veinsmobility 	totalDistance 	3413.9458875098
scalar RSUExampleScenario.node[68].veinsmobility 	totalCO2Emission 	823.91245284806
scalar RSUExampleScenario.node[69].veinsmobility 	startTime 	147
scalar RSUExampleScenario.node[69].veinsmobility 	totalTime 	458.6
scalar RSUExampleScenario.node[69].veinsmobility 	stopTime 	605.7
scalar RSUExampleScenario.node[69].veinsmobility 	minSpeed 	0.25927928492427
scalar RSUExampleScenario.node[69].veinsmobility 	maxSpeed 	9.9999987926101
scalar RSUExampleScenario.node[69].veinsmobility 	totalDistance 	3415.6267482275
scalar RSUExampleScenario.node[69].veinsmobility 	totalCO2Emission 	825.06305878703
scalar RSUExampleScenario.node[70].veinsmobility 	startTime 	149.1
scalar RSUExampleScenario.node[70].veinsmobility 	totalTime 	460.2
scalar RSUExampleScenario.node[70].veinsmobility 	stopTime 	609.4
scalar RSUExampleScenario.node[70].veinsmobility 	minSpeed 	0.24888948345743
scalar RSUExampleScenario.node[70].veinsmobility 	maxSpeed 	9.9999772544578
scalar RSUExampleScenario.node[70].veinsmobility 	totalDistance 	3413.9635741131
scalar RSUExampleScenario.node[70].veinsmobility 	totalCO2Emission 	826.57723328548
scalar RSUExampleScenario.node[71].veinsmobility 	startTime 	151.2
scalar RSUExampleScenario.node[71].veinsmobility 	totalTime 	461.8
scalar RSUExampleScenario.node[71].veinsmobility 	stopTime 	613.1
scalar RSUExampleScenario.node[71].veinsmobility 	minSpeed 	0.25096373567218
scalar RSUExampleScenario.node[71].veinsmobility 	maxSpeed 	9.9999361937284
scalar RSUExampleScenario.node[71].veinsmobility 	totalDistance 	3415.3474256893
scalar RSUExampleScenario.node[71].veinsmobility 	totalCO2Emission 	823.59368345371
scalar RSUExampleScenario.node[72].veinsmobility 	startTime 	153.3
scalar RSUExampleScenario.node[72].veinsmobility 	totalTime 	463.4
scalar RSUExampleScenario.node[72].veinsmobility 	stopTime 	616.8
scalar RSUExampleScenario.node[72].veinsmobility 	minSpeed 	0.25521361777629
scalar RSUExampleScenario.node[72].veinsmobility 	maxSpeed 	9.9998314994667
scalar RSUExampleScenario.node[72].veinsmobility 	totalDistance 	3414.4258579579
scalar RSUExampleScenario.node[72].veinsmobility 	totalCO2Emission 	825.56473580474
scalar RSUExampleScenario.node[73].veinsmobility 	startTime 	155.4
scalar RSUExampleScenario.node[73].veinsmobility 	totalTime 	465
scalar RSUExampleScenario.node[73].veinsmobility 	stopTime 	620.5
scalar RSUExampleScenario.node[73].veinsmobility 	minSpeed 	0.25566119019664
scalar RSUExampleScenario.node[73].veinsmobility 	maxSpeed 	9.9999812208652
scalar RSUExampleScenario.node[73].veinsmobility 	totalDistance 	3414.8000177635
scalar RSUExampleScenario.node[73].veinsmobility 	totalCO2Emission 	830.4553437947
scalar RSUExampleScenario.node[74].veinsmobility 	startTime 	157.6
scalar RSUExampleScenario.node[74].veinsmobility 	totalTime 	466.5
scalar RSUExampleScenario.node[74].veinsmobility 	stopTime 	624.2
scalar RSUExampleScenario.node[74].veinsmobility 	minSpeed 	0.25514277334488
scalar RSUExampleScenario.node[74].veinsmobility 	maxSpeed 	9.9998697814136
scalar RSUExampleScenario.node[74].veinsmobility 	totalDistance 	3414.6694083656
scalar RSUExampleScenario.node[74].veinsmobility 	totalCO2Emission 	832.30872052922
scalar RSUExampleScenario.node[75].veinsmobility 	startTime 	159.7
scalar RSUExampleScenario.node[75].veinsmobility 	totalTime 	468
scalar RSUExampleScenario.node[75].veinsmobility 	stopTime 	627.8
scalar RSUExampleScenario.node[75].veinsmobility 	minSpeed 	0.24984400606412
scalar RSUExampleScenario.node[75].veinsmobility 	maxSpeed 	9.9999740749877
scalar RSUExampleScenario.node[75].veinsmobility 	totalDistance 	3414.8994335664
scalar RSUExampleScenario.node[75].veinsmobility 	totalCO2Emission 	827.85281170512
scalar RSUExampleScenario.node[76].veinsmobility 	startTime 	161.8
scalar RSUExampleScenario.node[76].veinsmobility 	totalTime 	469.6
scalar RSUExampleScenario.node[76].veinsmobility 	stopTime 	631.5
scalar RSUExampleScenario.node[76].veinsmobility 	minSpeed 	0.24876847220398
scalar RSUExampleScenario.node[76].veinsmobility 	maxSpeed 	9.9999966479116
scalar RSUExampleScenario.node[76].veinsmobility 	totalDistance 	3414.6298440144
scalar RSUExampleScenario.node[76].veinsmobility 	totalCO2Emission 	832.05068240714
scalar RSUExampleScenario.node[77].veinsmobility 	startTime 	163.9
scalar RSUExampleScenario.node[77].veinsmobility 	totalTime 	471.3
scalar RSUExampleScenario.node[77].veinsmobility 	stopTime 	635.3
scalar RSUExampleScenario.node[77].veinsmobility 	minSpeed 	0.25832768816617
scalar RSUExampleScenario.node[77].veinsmobility 	maxSpeed 	9.9999301274493
scalar RSUExampleScenario.node[77].veinsmobility 	totalDistance 	3415.448505292
scalar RSUExampleScenario.node[77].veinsmobility 	totalCO2Emission 	836.37590802487
scalar RSUExampleScenario.node[78].veinsmobility 	startTime 	166
scalar RSUExampleScenario.node[78].veinsmobility 	totalTime 	472.9
scalar RSUExampleScenario.node[78].veinsmobility 	stopTime 	639
scalar RSUExampleScenario.node[78].veinsmobility 	minSpeed 	0.24852942146221
scalar RSUExampleScenario.node[78].veinsmobility 	maxSpeed 	9.9999893396161
scalar RSUExampleScenario.node[78].veinsmobility 	totalDistance 	3414.7357101746
scalar RSUExampleScenario.node[78].veinsmobility 	totalCO2Emission 	836.62836512524
scalar RSUExampleScenario.node[79].veinsmobility 	startTime 	168.1
scalar RSUExampleScenario.node[79].veinsmobility 	totalTime 	474.5
scalar RSUExampleScenario.node[79].veinsmobility 	stopTime 	642.7
scalar RSUExampleScenario.node[79].veinsmobility 	minSpeed 	0.25452299480303
scalar RSUExampleScenario.node[79].veinsmobility 	maxSpeed 	9.9999311124906
scalar RSUExampleScenario.node[79].veinsmobility 	totalDistance 	3415.2609264918
scalar RSUExampleScenario.node[79].veinsmobility 	totalCO2Emission 	842.45355162882
scalar RSUExampleScenario.node[80].veinsmobility 	startTime 	170.3
scalar RSUExampleScenario.node[80].veinsmobility 	totalTime 	476
scalar RSUExampleScenario.node[80].veinsmobility 	stopTime 	646.4
scalar RSUExampleScenario.node[80].veinsmobility 	minSpeed 	0.25413464488299
scalar RSUExampleScenario.node[80].veinsmobility 	maxSpeed 	9.9999846244091
scalar RSUExampleScenario.node[80].veinsmobility 	totalDistance 	3414.1860224671
scalar RSUExampleScenario.node[80].veinsmobility 	totalCO2Emission 	839.771106459
scalar RSUExampleScenario.node[81].veinsmobility 	startTime 	172.4
scalar RSUExampleScenario.node[81].veinsmobility 	totalTime 	477.7
scalar RSUExampleScenario.node[81].veinsmobility 	stopTime 	650.2
scalar RSUExampleScenario.node[81].veinsmobility 	minSpeed 	0.25641558957612
scalar RSUExampleScenario.node[81].veinsmobility 	maxSpeed 	9.9999812782835
scalar RSUExampleScenario.node[81].veinsmobility 	totalDistance 	3414.9929168563
scalar RSUExampleScenario.node[81].veinsmobility 	totalCO2Emission 	841.86917871721
scalar RSUExampleScenario.node[82].veinsmobility 	startTime 	174.5
scalar RSUExampleScenario.node[82].veinsmobility 	totalTime 	479.3
scalar RSUExampleScenario.node[82].veinsmobility 	stopTime 	653.9
scalar RSUExampleScenario.node[82].veinsmobility 	minSpeed 	0.25531436806824
scalar RSUExampleScenario.node[82].veinsmobility 	maxSpeed 	9.9999938511499
scalar RSUExampleScenario.node[82].veinsmobility 	totalDistance 	3414.6549683094
scalar RSUExampleScenario.node[82].veinsmobility 	totalCO2Emission 	843.94806315268
scalar RSUExampleScenario.node[83].veinsmobility 	startTime 	176.6
scalar RSUExampleScenario.node[83].veinsmobility 	totalTime 	481
scalar RSUExampleScenario.node[83].veinsmobility 	stopTime 	657.7
scalar RSUExampleScenario.node[83].veinsmobility 	minSpeed 	0.25322926261113
scalar RSUExampleScenario.node[83].veinsmobility 	maxSpeed 	9.9999721019389
scalar RSUExampleScenario.node[83].veinsmobility 	totalDistance 	3415.3465971881
scalar RSUExampleScenario.node[83].veinsmobility 	totalCO2Emission 	847.30943863984
scalar RSUExampleScenario.node[84].veinsmobility 	startTime 	178.7
scalar RSUExampleScenario.node[84].veinsmobility 	totalTime 	482.7
scalar RSUExampleScenario.node[84].veinsmobility 	stopTime 	661.5
scalar RSUExampleScenario.node[84].veinsmobility 	minSpeed 	0.25109931823262
scalar RSUExampleScenario.node[84].veinsmobility 	maxSpeed 	9.99994967754
scalar RSUExampleScenario.node[84].veinsmobility 	totalDistance 	3414.4747862442
scalar RSUExampleScenario.node[84].veinsmobility 	totalCO2Emission 	846.67159114331
scalar RSUExampleScenario.node[85].veinsmobility 	startTime 	180.8
scalar RSUExampleScenario.node[85].veinsmobility 	totalTime 	484.3
scalar RSUExampleScenario.node[85].veinsmobility 	stopTime 	665.2
scalar RSUExampleScenario.node[85].veinsmobility 	minSpeed 	0.25331348998006
scalar RSUExampleScenario.node[85].veinsmobility 	maxSpeed 	9.9999939031806
scalar RSUExampleScenario.node[85].veinsmobility 	totalDistance 	3415.425509763
scalar RSUExampleScenario.node[85].veinsmobility 	totalCO2Emission 	849.53753557643
scalar RSUExampleScenario.node[86].veinsmobility 	startTime 	182.9
scalar RSUExampleScenario.node[86].veinsmobility 	totalTime 	485.9
scalar RSUExampleScenario.node[86].veinsmobility 	stopTime 	668.9
scalar RSUExampleScenario.node[86].veinsmobility 	minSpeed 	0.25438418597216
scalar RSUExampleScenario.node[86].veinsmobility 	maxSpeed 	9.9999960448826
scalar RSUExampleScenario.node[86].veinsmobility 	totalDistance 	3414.355025127
scalar RSUExampleScenario.node[86].veinsmobility 	totalCO2Emission 	848.90687377148
scalar RSUExampleScenario.node[87].veinsmobility 	startTime 	185.1
scalar RSUExampleScenario.node[87].veinsmobility 	totalTime 	487.4
scalar RSUExampleScenario.node[87].veinsmobility 	stopTime 	672.6
scalar RSUExampleScenario.node[87].veinsmobility 	minSpeed 	0.2483279548632
scalar RSUExampleScenario.node[87].veinsmobility 	maxSpeed 	9.9999590558629
scalar RSUExampleScenario.node[87].veinsmobility 	totalDistance 	3415.475540007
scalar RSUExampleScenario.node[87].veinsmobility 	totalCO2Emission 	850.66431512293
scalar RSUExampleScenario.node[88].veinsmobility 	startTime 	187.2
scalar RSUExampleScenario.node[88].veinsmobility 	totalTime 	488.9
scalar RSUExampleScenario.node[88].veinsmobility 	stopTime 	676.2
scalar RSUExampleScenario.node[88].veinsmobility 	minSpeed 	0.25923236477631
scalar RSUExampleScenario.node[88].veinsmobility 	maxSpeed 	9.9999427643325
scalar RSUExampleScenario.node[88].veinsmobility 	totalDistance 	3413.9724421919
scalar RSUExampleScenario.node[88].veinsmobility 	totalCO2Emission 	850.76668078852
scalar RSUExampleScenario.node[89].veinsmobility 	startTime 	189.3
scalar RSUExampleScenario.node[89].veinsmobility 	totalTime 	490.5
scalar RSUExampleScenario.node[89].veinsmobility 	stopTime 	679.9
scalar RSUExampleScenario.node[89].veinsmobility 	minSpeed 	0.24764575722232
scalar RSUExampleScenario.node[89].veinsmobility 	maxSpeed 	9.9999582652329
scalar RSUExampleScenario.node[89].veinsmobility 	totalDistance 	3415.2975250193
scalar RSUExampleScenario.node[89].veinsmobility 	totalCO2Emission 	849.95815221797
scalar RSUExampleScenario.node[90].veinsmobility 	startTime 	191.4
scalar RSUExampleScenario.node[90].veinsmobility 	totalTime 	492.1
scalar RSUExampleScenario.node[90].veinsmobility 	stopTime 	683.6
scalar RSUExampleScenario.node[90].veinsmobility 	minSpeed 	0.25194558080635
scalar RSUExampleScenario.node[90].veinsmobility 	maxSpeed 	9.9999796716287
scalar RSUExampleScenario.node[90].veinsmobility 	totalDistance 	3414.5868010596
scalar RSUExampleScenario.node[90].veinsmobility 	totalCO2Emission 	855.22659204579
scalar RSUExampleScenario.node[91].veinsmobility 	startTime 	193.5
scalar RSUExampleScenario.node[91].veinsmobility 	totalTime 	493.7
scalar RSUExampleScenario.node[91].veinsmobility 	stopTime 	687.3
scalar RSUExampleScenario.node[91].veinsmobility 	minSpeed 	0.25732165378262
scalar RSUExampleScenario.node[91].veinsmobility 	maxSpeed 	9.9999765813886
scalar RSUExampleScenario.node[91].veinsmobility 	totalDistance 	3415.0247236913
scalar RSUExampleScenario.node[91].veinsmobility 	totalCO2Emission 	855.37002733644
scalar RSUExampleScenario.node[92].veinsmobility 	startTime 	195.6
scalar RSUExampleScenario.node[92].veinsmobility 	totalTime 	495.3
scalar RSUExampleScenario.node[92].veinsmobility 	stopTime 	691
scalar RSUExampleScenario.node[92].veinsmobility 	minSpeed 	0.25883338108403
scalar RSUExampleScenario.node[92].veinsmobility 	maxSpeed 	9.9999475772143
scalar RSUExampleScenario.node[92].veinsmobility 	totalDistance 	3414.6606088747
scalar RSUExampleScenario.node[92].veinsmobility 	totalCO2Emission 	863.27452938625
scalar RSUExampleScenario.node[93].veinsmobility 	startTime 	197.7
scalar RSUExampleScenario.node[93].veinsmobility 	totalTime 	496.9
scalar RSUExampleScenario.node[93].veinsmobility 	stopTime 	694.7
scalar RSUExampleScenario.node[93].veinsmobility 	minSpeed 	0.24733890719293
scalar RSUExampleScenario.node[93].veinsmobility 	maxSpeed 	9.9999967606901
scalar RSUExampleScenario.node[93].veinsmobility 	totalDistance 	3415.244044086
scalar RSUExampleScenario.node[93].veinsmobility 	totalCO2Emission 	860.44291127913
scalar RSUExampleScenario.node[94].veinsmobility 	startTime 	199.9
scalar RSUExampleScenario.node[94].veinsmobility 	totalTime 	498.3
scalar RSUExampleScenario.node[94].veinsmobility 	stopTime 	698.3
scalar RSUExampleScenario.node[94].veinsmobility 	minSpeed 	0.25991061268444
scalar RSUExampleScenario.node[94].veinsmobility 	maxSpeed 	9.9997951729526
scalar RSUExampleScenario.node[94].veinsmobility 	totalDistance 	3414.0769173699
scalar RSUExampleScenario.node[94].veinsmobility 	totalCO2Emission 	864.91322537225
scalar RSUExampleScenario.node[95].veinsmobility 	startTime 	202
scalar RSUExampleScenario.node[95].veinsmobility 	totalTime 	499.9
scalar RSUExampleScenario.node[95].veinsmobility 	stopTime 	702
scalar RSUExampleScenario.node[95].veinsmobility 	minSpeed 	0.25260302681266
scalar RSUExampleScenario.node[95].veinsmobility 	maxSpeed 	9.9999840251938
scalar RSUExampleScenario.node[95].veinsmobility 	totalDistance 	3415.5661190513
scalar RSUExampleScenario.node[95].veinsmobility 	totalCO2Emission 	866.63940772859
scalar RSUExampleScenario.node[96].veinsmobility 	startTime 	204.1
scalar RSUExampleScenario.node[96].veinsmobility 	totalTime 	501.5
scalar RSUExampleScenario.node[96].veinsmobility 	stopTime 	705.7
scalar RSUExampleScenario.node[96].veinsmobility 	minSpeed 	0.25200665324042
scalar RSUExampleScenario.node[96].veinsmobility 	maxSpeed 	9.9999666464678
scalar RSUExampleScenario.node[96].veinsmobility 	totalDistance 	3414.3399808562
scalar RSUExampleScenario.node[96].veinsmobility 	totalCO2Emission 	864.38485759226
scalar RSUExampleScenario.node[97].veinsmobility 	startTime 	206.2
scalar RSUExampleScenario.node[97].veinsmobility 	totalTime 	503.1
scalar RSUExampleScenario.node[97].veinsmobility 	stopTime 	709.4
scalar RSUExampleScenario.node[97].veinsmobility 	minSpeed 	0.25627015011059
scalar RSUExampleScenario.node[97].veinsmobility 	maxSpeed 	9.99998589291
scalar RSUExampleScenario.node[97].veinsmobility 	totalDistance 	3415.475161284
scalar RSUExampleScenario.node[97].veinsmobility 	totalCO2Emission 	867.03068108108
scalar RSUExampleScenario.node[98].veinsmobility 	startTime 	208.3
scalar RSUExampleScenario.node[98].veinsmobility 	totalTime 	504.7
scalar RSUExampleScenario.node[98].veinsmobility 	stopTime 	713.1
scalar RSUExampleScenario.node[98].veinsmobility 	minSpeed 	0.25186911370652
scalar RSUExampleScenario.node[98].veinsmobility 	maxSpeed 	9.9999753964273
scalar RSUExampleScenario.node[98].veinsmobility 	totalDistance 	3414.5944775224
scalar RSUExampleScenario.node[98].veinsmobility 	totalCO2Emission 	871.37876221298
scalar RSUExampleScenario.node[99].veinsmobility 	startTime 	210.4
scalar RSUExampleScenario.node[99].veinsmobility 	totalTime 	506.3
scalar RSUExampleScenario.node[99].veinsmobility 	stopTime 	716.8
scalar RSUExampleScenario.node[99].veinsmobility 	minSpeed 	0.25181522504846
scalar RSUExampleScenario.node[99].veinsmobility 	maxSpeed 	9.9999042733246
scalar RSUExampleScenario.node[99].veinsmobility 	totalDistance 	3415.0986145322
scalar RSUExampleScenario.node[99].veinsmobility 	totalCO2Emission 	869.24047428478
scalar RSUExampleScenario.node[100].veinsmobility 	startTime 	212.5
scalar RSUExampleScenario.node[100].veinsmobility 	totalTime 	507.8
scalar RSUExampleScenario.node[100].veinsmobility 	stopTime 	720.4
scalar RSUExampleScenario.node[100].veinsmobility 	minSpeed 	0.25751405048952
scalar RSUExampleScenario.node[100].veinsmobility 	maxSpeed 	9.9999668959668
scalar RSUExampleScenario.node[100].veinsmobility 	totalDistance 	3413.9988557307
scalar RSUExampleScenario.node[100].veinsmobility 	totalCO2Emission 	875.78125674633
scalar RSUExampleScenario.node[101].veinsmobility 	startTime 	214.6
scalar RSUExampleScenario.node[101].veinsmobility 	totalTime 	509.4
scalar RSUExampleScenario.node[101].veinsmobility 	stopTime 	724.1
scalar RSUExampleScenario.node[101].veinsmobility 	minSpeed 	0.25077113889996
scalar RSUExampleScenario.node[101].veinsmobility 	maxSpeed 	9.9999766257918
scalar RSUExampleScenario.node[101].veinsmobility 	totalDistance 	3415.5398999868
scalar RSUExampleScenario.node[101].veinsmobility 	totalCO2Emission 	874.42645837967
scalar RSUExampleScenario.node[102].veinsmobility 	startTime 	216.8
scalar RSUExampleScenario.node[102].veinsmobility 	totalTime 	510.9
scalar RSUExampleScenario.node[102].veinsmobility 	stopTime 	727.8
scalar RSUExampleScenario.node[102].veinsmobility 	minSpeed 	0.25873449659231
scalar RSUExampleScenario.node[102].veinsmobility 	maxSpeed 	9.9998992700875
scalar RSUExampleScenario.node[102].veinsmobility 	totalDistance 	3414.5817619286
scalar RSUExampleScenario.node[102].veinsmobility 	totalCO2Emission 	875.13962543686
scalar RSUExampleScenario.node[103].veinsmobility 	startTime 	219
scalar RSUExampleScenario.node[103].veinsmobility 	totalTime 	512.4
scalar RSUExampleScenario.node[103].veinsmobility 	stopTime 	731.5
scalar RSUExampleScenario.node[103].veinsmobility 	minSpeed 	0.25455023748055
scalar RSUExampleScenario.node[103].veinsmobility 	maxSpeed 	9.9999715161021
scalar RSUExampleScenario.node[103].veinsmobility 	totalDistance 	3415.3720993121
scalar RSUExampleScenario.node[103].veinsmobility 	totalCO2Emission 	879.56285161645
scalar RSUExampleScenario.node[104].veinsmobility 	startTime 	221.1
scalar RSUExampleScenario.node[104].veinsmobility 	totalTime 	514
scalar RSUExampleScenario.node[104].veinsmobility 	stopTime 	735.2
scalar RSUExampleScenario.node[104].veinsmobility 	minSpeed 	0.25472240966861
scalar RSUExampleScenario.node[104].veinsmobility 	maxSpeed 	9.9999462805642
scalar RSUExampleScenario.node[104].veinsmobility 	totalDistance 	3414.5746740003
scalar RSUExampleScenario.node[104].veinsmobility 	totalCO2Emission 	875.76896335624
scalar RSUExampleScenario.node[105].veinsmobility 	startTime 	223.2
scalar RSUExampleScenario.node[105].veinsmobility 	totalTime 	515.6
scalar RSUExampleScenario.node[105].veinsmobility 	stopTime 	738.9
scalar RSUExampleScenario.node[105].veinsmobility 	minSpeed 	0.24780230015563
scalar RSUExampleScenario.node[105].veinsmobility 	maxSpeed 	9.9999886435131
scalar RSUExampleScenario.node[105].veinsmobility 	totalDistance 	3415.391984017
scalar RSUExampleScenario.node[105].veinsmobility 	totalCO2Emission 	878.46798666772
scalar RSUExampleScenario.node[106].veinsmobility 	startTime 	225.3
scalar RSUExampleScenario.node[106].veinsmobility 	totalTime 	517.2
scalar RSUExampleScenario.node[106].veinsmobility 	stopTime 	742.6
scalar RSUExampleScenario.node[106].veinsmobility 	minSpeed 	0.24782144735521
scalar RSUExampleScenario.node[106].veinsmobility 	maxSpeed 	9.9997785978112
scalar RSUExampleScenario.node[106].veinsmobility 	totalDistance 	3414.4860007848
scalar RSUExampleScenario.node[106].veinsmobility 	totalCO2Emission 	880.40133694018
scalar RSUExampleScenario.node[107].veinsmobility 	startTime 	227.4
scalar RSUExampleScenario.node[107].veinsmobility 	totalTime 	518.8
scalar RSUExampleScenario.node[107].veinsmobility 	stopTime 	746.3
scalar RSUExampleScenario.node[107].veinsmobility 	minSpeed 	0.25993925943924
scalar RSUExampleScenario.node[107].veinsmobility 	maxSpeed 	9.9999673022842
scalar RSUExampleScenario.node[107].veinsmobility 	totalDistance 	3415.3924222699
scalar RSUExampleScenario.node[107].veinsmobility 	totalCO2Emission 	887.37863563607
scalar RSUExampleScenario.node[108].veinsmobility 	startTime 	229.5
scalar RSUExampleScenario.node[108].veinsmobility 	totalTime 	520.4
scalar RSUExampleScenario.node[108].veinsmobility 	stopTime 	750
scalar RSUExampleScenario.node[108].veinsmobility 	minSpeed 	0.25758417447936
scalar RSUExampleScenario.node[108].veinsmobility 	maxSpeed 	9.9999988973071
scalar RSUExampleScenario.node[108].veinsmobility 	totalDistance 	3414.2359724275
scalar RSUExampleScenario.node[108].veinsmobility 	totalCO2Emission 	889.80297452011
scalar RSUExampleScenario.node[109].veinsmobility 	startTime 	231.6
scalar RSUExampleScenario.node[109].veinsmobility 	totalTime 	521.9
scalar RSUExampleScenario.node[109].veinsmobility 	stopTime 	753.6
scalar RSUExampleScenario.node[109].veinsmobility 	minSpeed 	0.24980416809162
scalar RSUExampleScenario.node[109].veinsmobility 	maxSpeed 	9.9999809181551
scalar RSUExampleScenario.node[109].veinsmobility 	totalDistance 	3410.0391912593
scalar RSUExampleScenario.node[109].veinsmobility 	totalCO2Emission 	885.72265427836
scalar RSUExampleScenario.node[110].veinsmobility 	startTime 	233.7
scalar RSUExampleScenario.node[110].veinsmobility 	totalTime 	523.5
scalar RSUExampleScenario.node[110].veinsmobility 	stopTime 	757.3
scalar RSUExampleScenario.node[110].veinsmobility 	minSpeed 	0.25244345945097
scalar RSUExampleScenario.node[110].veinsmobility 	maxSpeed 	9.9999544534646
scalar RSUExampleScenario.node[110].veinsmobility 	totalDistance 	3414.6433652565
scalar RSUExampleScenario.node[110].veinsmobility 	totalCO2Emission 	888.50608389547
scalar RSUExampleScenario.node[111].veinsmobility 	startTime 	235.9
scalar RSUExampleScenario.node[111].veinsmobility 	totalTime 	525
scalar RSUExampleScenario.node[111].veinsmobility 	stopTime 	761
scalar RSUExampleScenario.node[111].veinsmobility 	minSpeed 	0.25493117712019
scalar RSUExampleScenario.node[111].veinsmobility 	maxSpeed 	9.9999656606698
scalar RSUExampleScenario.node[111].veinsmobility 	totalDistance 	3410.5320659963
scalar RSUExampleScenario.node[111].veinsmobility 	totalCO2Emission 	892.62523107111
scalar RSUExampleScenario.node[112].veinsmobility 	startTime 	238
scalar RSUExampleScenario.node[112].veinsmobility 	totalTime 	526.6
scalar RSUExampleScenario.node[112].veinsmobility 	stopTime 	764.7
scalar RSUExampleScenario.node[112].veinsmobility 	minSpeed 	0.24789051562804
scalar RSUExampleScenario.node[112].veinsmobility 	maxSpeed 	9.99998559247
scalar RSUExampleScenario.node[112].veinsmobility 	totalDistance 	3414.3387214402
scalar RSUExampleScenario.node[112].veinsmobility 	totalCO2Emission 	889.15499804401
scalar RSUExampleScenario.node[113].veinsmobility 	startTime 	240.1
scalar RSUExampleScenario.node[113].veinsmobility 	totalTime 	528.1
scalar RSUExampleScenario.node[113].veinsmobility 	stopTime 	768.3
scalar RSUExampleScenario.node[113].veinsmobility 	minSpeed 	0.25660886558611
scalar RSUExampleScenario.node[113].veinsmobility 	maxSpeed 	9.9998454933241
scalar RSUExampleScenario.node[113].veinsmobility 	totalDistance 	3410.1245160747
scalar RSUExampleScenario.node[113].veinsmobility 	totalCO2Emission 	892.54754137874
scalar RSUExampleScenario.node[114].veinsmobility 	startTime 	242.2
scalar RSUExampleScenario.node[114].veinsmobility 	totalTime 	529.6
scalar RSUExampleScenario.node[114].veinsmobility 	stopTime 	771.9
scalar RSUExampleScenario.node[114].veinsmobility 	minSpeed 	0.24998609861103
scalar RSUExampleScenario.node[114].veinsmobility 	maxSpeed 	9.9999888861715
scalar RSUExampleScenario.node[114].veinsmobility 	totalDistance 	3414.0628568704
scalar RSUExampleScenario.node[114].veinsmobility 	totalCO2Emission 	894.31821386434
scalar RSUExampleScenario.node[115].veinsmobility 	startTime 	244.3
scalar RSUExampleScenario.node[115].veinsmobility 	totalTime 	531.1
scalar RSUExampleScenario.node[115].veinsmobility 	stopTime 	775.5
scalar RSUExampleScenario.node[115].veinsmobility 	minSpeed 	0.24874359772378
scalar RSUExampleScenario.node[115].veinsmobility 	maxSpeed 	9.999956488139
scalar RSUExampleScenario.node[115].veinsmobility 	totalDistance 	3410.3154578878
scalar RSUExampleScenario.node[115].veinsmobility 	totalCO2Emission 	896.39871957731
scalar RSUExampleScenario.node[116].veinsmobility 	startTime 	246.4
scalar RSUExampleScenario.node[116].veinsmobility 	totalTime 	532.6
scalar RSUExampleScenario.node[116].veinsmobility 	stopTime 	779.1
scalar RSUExampleScenario.node[116].veinsmobility 	minSpeed 	0.25655296667689
scalar RSUExampleScenario.node[116].veinsmobility 	maxSpeed 	9.9999949487881
scalar RSUExampleScenario.node[116].veinsmobility 	totalDistance 	3414.3281602285
scalar RSUExampleScenario.node[116].veinsmobility 	totalCO2Emission 	899.16067121169
scalar RSUExampleScenario.node[117].veinsmobility 	startTime 	248.6
scalar RSUExampleScenario.node[117].veinsmobility 	totalTime 	534
scalar RSUExampleScenario.node[117].veinsmobility 	stopTime 	782.7
scalar RSUExampleScenario.node[117].veinsmobility 	minSpeed 	0.2555182277509
scalar RSUExampleScenario.node[117].veinsmobility 	maxSpeed 	9.9999509250047
scalar RSUExampleScenario.node[117].veinsmobility 	totalDistance 	3410.1874408903
scalar RSUExampleScenario.node[117].veinsmobility 	totalCO2Emission 	899.83386652017
scalar RSUExampleScenario.node[118].veinsmobility 	startTime 	250.8
scalar RSUExampleScenario.node[118].veinsmobility 	totalTime 	535.5
scalar RSUExampleScenario.node[118].veinsmobility 	stopTime 	786.4
scalar RSUExampleScenario.node[118].veinsmobility 	minSpeed 	0.25872749235993
scalar RSUExampleScenario.node[118].veinsmobility 	maxSpeed 	9.9999264651141
scalar RSUExampleScenario.node[118].veinsmobility 	totalDistance 	3414.3941091067
scalar RSUExampleScenario.node[118].veinsmobility 	totalCO2Emission 	900.77261362451
scalar RSUExampleScenario.node[119].veinsmobility 	startTime 	252.9
scalar RSUExampleScenario.node[119].veinsmobility 	totalTime 	537.1
scalar RSUExampleScenario.node[119].veinsmobility 	stopTime 	790.1
scalar RSUExampleScenario.node[119].veinsmobility 	minSpeed 	0.24897311083926
scalar RSUExampleScenario.node[119].veinsmobility 	maxSpeed 	9.9999930381519
scalar RSUExampleScenario.node[119].veinsmobility 	totalDistance 	3410.5556997621
scalar RSUExampleScenario.node[119].veinsmobility 	totalCO2Emission 	901.68605646096
scalar RSUExampleScenario.node[120].veinsmobility 	startTime 	255
scalar RSUExampleScenario.node[120].veinsmobility 	totalTime 	538.7
scalar RSUExampleScenario.node[120].veinsmobility 	stopTime 	793.8
scalar RSUExampleScenario.node[120].veinsmobility 	minSpeed 	0.25757972313347
scalar RSUExampleScenario.node[120].veinsmobility 	maxSpeed 	9.9999792032316
scalar RSUExampleScenario.node[120].veinsmobility 	totalDistance 	3414.4709424628
scalar RSUExampleScenario.node[120].veinsmobility 	totalCO2Emission 	903.56096481358
scalar RSUExampleScenario.node[121].veinsmobility 	startTime 	257.1
scalar RSUExampleScenario.node[121].veinsmobility 	totalTime 	540.3
scalar RSUExampleScenario.node[121].veinsmobility 	stopTime 	797.5
scalar RSUExampleScenario.node[121].veinsmobility 	minSpeed 	0.25237568957172
scalar RSUExampleScenario.node[121].veinsmobility 	maxSpeed 	9.9999963908759
scalar RSUExampleScenario.node[121].veinsmobility 	totalDistance 	3410.3178333054
scalar RSUExampleScenario.node[121].veinsmobility 	totalCO2Emission 	906.0241318528
scalar RSUExampleScenario.node[122].veinsmobility 	startTime 	259.2
scalar RSUExampleScenario.node[122].veinsmobility 	totalTime 	541.9
scalar RSUExampleScenario.node[122].veinsmobility 	stopTime 	801.2
scalar RSUExampleScenario.node[122].veinsmobility 	minSpeed 	0.25616286486108
scalar RSUExampleScenario.node[122].veinsmobility 	maxSpeed 	9.999937026673
scalar RSUExampleScenario.node[122].veinsmobility 	totalDistance 	3414.3768396455
scalar RSUExampleScenario.node[122].veinsmobility 	totalCO2Emission 	905.70337493762
scalar RSUExampleScenario.node[123].veinsmobility 	startTime 	261.3
scalar RSUExampleScenario.node[123].veinsmobility 	totalTime 	543.5
scalar RSUExampleScenario.node[123].veinsmobility 	stopTime 	804.9
scalar RSUExampleScenario.node[123].veinsmobility 	minSpeed 	0.25691170823434
scalar RSUExampleScenario.node[123].veinsmobility 	maxSpeed 	9.9998399556149
scalar RSUExampleScenario.node[123].veinsmobility 	totalDistance 	3410.7208430019
scalar RSUExampleScenario.node[123].veinsmobility 	totalCO2Emission 	907.07802392876
scalar RSUExampleScenario.node[124].veinsmobility 	startTime 	263.4
scalar RSUExampleScenario.node[124].veinsmobility 	totalTime 	545.1
scalar RSUExampleScenario.node[124].veinsmobility 	stopTime 	808.6
scalar RSUExampleScenario.node[124].veinsmobility 	minSpeed 	0.25201261663251
scalar RSUExampleScenario.node[124].veinsmobility 	maxSpeed 	9.999938188449
scalar RSUExampleScenario.node[124].veinsmobility 	totalDistance 	3414.1917668407
scalar RSUExampleScenario.node[124].veinsmobility 	totalCO2Emission 	907.01274801717
scalar RSUExampleScenario.node[125].veinsmobility 	startTime 	265.5
scalar RSUExampleScenario.node[125].veinsmobility 	totalTime 	546.8
scalar RSUExampleScenario.node[125].veinsmobility 	stopTime 	812.4
scalar RSUExampleScenario.node[125].veinsmobility 	minSpeed 	0.24787041591015
scalar RSUExampleScenario.node[125].veinsmobility 	maxSpeed 	9.999998494985
scalar RSUExampleScenario.node[125].veinsmobility 	totalDistance 	3410.6492066325
scalar RSUExampleScenario.node[125].veinsmobility 	totalCO2Emission 	913.43718588639
scalar RSUExampleScenario.node[126].veinsmobility 	startTime 	267.6
scalar RSUExampleScenario.node[126].veinsmobility 	totalTime 	548.5
scalar RSUExampleScenario.node[126].veinsmobility 	stopTime 	816.2
scalar RSUExampleScenario.node[126].veinsmobility 	minSpeed 	0.25102880124329
scalar RSUExampleScenario.node[126].veinsmobility 	maxSpeed 	9.9999826944014
scalar RSUExampleScenario.node[126].veinsmobility 	totalDistance 	3414.8401379379
scalar RSUExampleScenario.node[126].veinsmobility 	totalCO2Emission 	914.03549026574
scalar RSUExampleScenario.node[127].veinsmobility 	startTime 	269.8
scalar RSUExampleScenario.node[127].veinsmobility 	totalTime 	550
scalar RSUExampleScenario.node[127].veinsmobility 	stopTime 	819.9
scalar RSUExampleScenario.node[127].veinsmobility 	minSpeed 	0.24866265518474
scalar RSUExampleScenario.node[127].veinsmobility 	maxSpeed 	9.9999816742796
scalar RSUExampleScenario.node[127].veinsmobility 	totalDistance 	3410.0877040818
scalar RSUExampleScenario.node[127].veinsmobility 	totalCO2Emission 	916.55279515909
scalar RSUExampleScenario.node[128].veinsmobility 	startTime 	272
scalar RSUExampleScenario.node[128].veinsmobility 	totalTime 	551.5
scalar RSUExampleScenario.node[128].veinsmobility 	stopTime 	823.6
scalar RSUExampleScenario.node[128].veinsmobility 	minSpeed 	0.24905381368916
scalar RSUExampleScenario.node[128].veinsmobility 	maxSpeed 	9.9999891307973
scalar RSUExampleScenario.node[128].veinsmobility 	totalDistance 	3414.36431995
scalar RSUExampleScenario.node[128].veinsmobility 	totalCO2Emission 	915.46270174357
scalar RSUExampleScenario.node[129].veinsmobility 	startTime 	274.1
scalar RSUExampleScenario.node[129].veinsmobility 	totalTime 	553
scalar RSUExampleScenario.node[129].veinsmobility 	stopTime 	827.2
scalar RSUExampleScenario.node[129].veinsmobility 	minSpeed 	0.25869242487289
scalar RSUExampleScenario.node[129].veinsmobility 	maxSpeed 	9.9999228103762
scalar RSUExampleScenario.node[129].veinsmobility 	totalDistance 	3410.1892628339
scalar RSUExampleScenario.node[129].veinsmobility 	totalCO2Emission 	919.54442484396
scalar RSUExampleScenario.node[130].veinsmobility 	startTime 	276.3
scalar RSUExampleScenario.node[130].veinsmobility 	totalTime 	554.4
scalar RSUExampleScenario.node[130].veinsmobility 	stopTime 	830.8
scalar RSUExampleScenario.node[130].veinsmobility 	minSpeed 	0.25595570013556
scalar RSUExampleScenario.node[130].veinsmobility 	maxSpeed 	9.9999600121798
scalar RSUExampleScenario.node[130].veinsmobility 	totalDistance 	3414.2169224868
scalar RSUExampleScenario.node[130].veinsmobility 	totalCO2Emission 	924.26661261198
scalar RSUExampleScenario.node[131].veinsmobility 	startTime 	278.4
scalar RSUExampleScenario.node[131].veinsmobility 	totalTime 	556
scalar RSUExampleScenario.node[131].veinsmobility 	stopTime 	834.5
scalar RSUExampleScenario.node[131].veinsmobility 	minSpeed 	0.2500644526442
scalar RSUExampleScenario.node[131].veinsmobility 	maxSpeed 	9.9999092427827
scalar RSUExampleScenario.node[131].veinsmobility 	totalDistance 	3410.6785309862
scalar RSUExampleScenario.node[131].veinsmobility 	totalCO2Emission 	921.72879265368
scalar RSUExampleScenario.node[132].veinsmobility 	startTime 	280.5
scalar RSUExampleScenario.node[132].veinsmobility 	totalTime 	557.5
scalar RSUExampleScenario.node[132].veinsmobility 	stopTime 	838.1
scalar RSUExampleScenario.node[132].veinsmobility 	minSpeed 	0.24741216936428
scalar RSUExampleScenario.node[132].veinsmobility 	maxSpeed 	9.9999719976052
scalar RSUExampleScenario.node[132].veinsmobility 	totalDistance 	3414.1088228391
scalar RSUExampleScenario.node[132].veinsmobility 	totalCO2Emission 	921.88169651773
scalar RSUExampleScenario.node[133].veinsmobility 	startTime 	282.6
scalar RSUExampleScenario.node[133].veinsmobility 	totalTime 	559.1
scalar RSUExampleScenario.node[133].veinsmobility 	stopTime 	841.8
scalar RSUExampleScenario.node[133].veinsmobility 	minSpeed 	0.25530209648632
scalar RSUExampleScenario.node[133].veinsmobility 	maxSpeed 	9.9999939099001
scalar RSUExampleScenario.node[133].veinsmobility 	totalDistance 	3410.4642066792
scalar RSUExampleScenario.node[133].veinsmobility 	totalCO2Emission 	919.61561231786
scalar RSUExampleScenario.node[134].veinsmobility 	startTime 	284.8
scalar RSUExampleScenario.node[134].veinsmobility 	totalTime 	560.6
scalar RSUExampleScenario.node[134].veinsmobility 	stopTime 	845.5
scalar RSUExampleScenario.node[134].veinsmobility 	minSpeed 	0.25858269628277
scalar RSUExampleScenario.node[134].veinsmobility 	maxSpeed 	9.9999985375721
scalar RSUExampleScenario.node[134].veinsmobility 	totalDistance 	3414.5151783635
scalar RSUExampleScenario.node[134].veinsmobility 	totalCO2Emission 	921.53576138351
scalar RSUExampleScenario.node[135].veinsmobility 	startTime 	287
scalar RSUExampleScenario.node[135].veinsmobility 	totalTime 	562.1
scalar RSUExampleScenario.node[135].veinsmobility 	stopTime 	849.2
scalar RSUExampleScenario.node[135].veinsmobility 	minSpeed 	0.25250470613176
scalar RSUExampleScenario.node[135].veinsmobility 	maxSpeed 	9.9999608975789
scalar RSUExampleScenario.node[135].veinsmobility 	totalDistance 	3410.1693956747
scalar RSUExampleScenario.node[135].veinsmobility 	totalCO2Emission 	923.89047540044
scalar RSUExampleScenario.node[136].veinsmobility 	startTime 	289.1
scalar RSUExampleScenario.node[136].veinsmobility 	totalTime 	563.7
scalar RSUExampleScenario.node[136].veinsmobility 	stopTime 	852.9
scalar RSUExampleScenario.node[136].veinsmobility 	minSpeed 	0.24781134892977
scalar RSUExampleScenario.node[136].veinsmobility 	maxSpeed 	9.9999979364802
scalar RSUExampleScenario.node[136].veinsmobility 	totalDistance 	3414.3308567977
scalar RSUExampleScenario.node[136].veinsmobility 	totalCO2Emission 	927.39367258547
scalar RSUExampleScenario.node[137].veinsmobility 	startTime 	291.3
scalar RSUExampleScenario.node[137].veinsmobility 	totalTime 	565.2
scalar RSUExampleScenario.node[137].veinsmobility 	stopTime 	856.6
scalar RSUExampleScenario.node[137].veinsmobility 	minSpeed 	0.25084976022062
scalar RSUExampleScenario.node[137].veinsmobility 	maxSpeed 	9.99988339565
scalar RSUExampleScenario.node[137].veinsmobility 	totalDistance 	3410.3572872985
scalar RSUExampleScenario.node[137].veinsmobility 	totalCO2Emission 	925.55726709943
scalar RSUExampleScenario.node[138].veinsmobility 	startTime 	293.5
scalar RSUExampleScenario.node[138].veinsmobility 	totalTime 	566.6
scalar RSUExampleScenario.node[138].veinsmobility 	stopTime 	860.2
scalar RSUExampleScenario.node[138].veinsmobility 	minSpeed 	0.24828954860568
scalar RSUExampleScenario.node[138].veinsmobility 	maxSpeed 	9.9999448370235
scalar RSUExampleScenario.node[138].veinsmobility 	totalDistance 	3414.1881971257
scalar RSUExampleScenario.node[138].veinsmobility 	totalCO2Emission 	927.62522643003
scalar RSUExampleScenario.node[139].veinsmobility 	startTime 	295.7
scalar RSUExampleScenario.node[139].veinsmobility 	totalTime 	568.1
scalar RSUExampleScenario.node[139].veinsmobility 	stopTime 	863.9
scalar RSUExampleScenario.node[139].veinsmobility 	minSpeed 	0.25486652573012
scalar RSUExampleScenario.node[139].veinsmobility 	maxSpeed 	9.9999887312902
scalar RSUExampleScenario.node[139].veinsmobility 	totalDistance 	3410.5202421661
scalar RSUExampleScenario.node[139].veinsmobility 	totalCO2Emission 	929.2010587535
scalar RSUExampleScenario.node[140].veinsmobility 	startTime 	297.8
scalar RSUExampleScenario.node[140].veinsmobility 	totalTime 	569.7
scalar RSUExampleScenario.node[140].veinsmobility 	stopTime 	867.6
scalar RSUExampleScenario.node[140].veinsmobility 	minSpeed 	0.25959566228883
scalar RSUExampleScenario.node[140].veinsmobility 	maxSpeed 	9.9999848670978
scalar RSUExampleScenario.node[140].veinsmobility 	totalDistance 	3414.5145481917
scalar RSUExampleScenario.node[140].veinsmobility 	totalCO2Emission 	934.95930373699
scalar RSUExampleScenario.node[141].veinsmobility 	startTime 	300
scalar RSUExampleScenario.node[141].veinsmobility 	totalTime 	571.2
scalar RSUExampleScenario.node[141].veinsmobility 	stopTime 	871.3
scalar RSUExampleScenario.node[141].veinsmobility 	minSpeed 	0.25320188186923
scalar RSUExampleScenario.node[141].veinsmobility 	maxSpeed 	9.9999008366372
scalar RSUExampleScenario.node[141].veinsmobility 	totalDistance 	3410.3882075766
scalar RSUExampleScenario.node[141].veinsmobility 	totalCO2Emission 	932.14961848829
scalar RSUExampleScenario.node[142].veinsmobility 	startTime 	302.1
scalar RSUExampleScenario.node[142].veinsmobility 	totalTime 	572.8
scalar RSUExampleScenario.node[142].veinsmobility 	stopTime 	875
scalar RSUExampleScenario.node[142].veinsmobility 	minSpeed 	0.24958830716251
scalar RSUExampleScenario.node[142].veinsmobility 	maxSpeed 	9.9999348662654
scalar RSUExampleScenario.node[142].veinsmobility 	totalDistance 	3414.2694590716
scalar RSUExampleScenario.node[142].veinsmobility 	totalCO2Emission 	932.65232943133
scalar RSUExampleScenario.node[143].veinsmobility 	startTime 	304.2
scalar RSUExampleScenario.node[143].veinsmobility 	totalTime 	574.4
scalar RSUExampleScenario.node[143].veinsmobility 	stopTime 	878.7
scalar RSUExampleScenario.node[143].veinsmobility 	minSpeed 	0.24948879783368
scalar RSUExampleScenario.node[143].veinsmobility 	maxSpeed 	9.9999703579885
scalar RSUExampleScenario.node[143].veinsmobility 	totalDistance 	3410.4796431595
scalar RSUExampleScenario.node[143].veinsmobility 	totalCO2Emission 	937.70541813932
scalar RSUExampleScenario.node[144].veinsmobility 	startTime 	306.3
scalar RSUExampleScenario.node[144].veinsmobility 	totalTime 	576
scalar RSUExampleScenario.node[144].veinsmobility 	stopTime 	882.4
scalar RSUExampleScenario.node[144].veinsmobility 	minSpeed 	0.25971568233543
scalar RSUExampleScenario.node[144].veinsmobility 	maxSpeed 	9.9998800595733
scalar RSUExampleScenario.node[144].veinsmobility 	totalDistance 	3414.5255318092
scalar RSUExampleScenario.node[144].veinsmobility 	totalCO2Emission 	938.02719424411
scalar RSUExampleScenario.node[145].veinsmobility 	startTime 	308.4
scalar RSUExampleScenario.node[145].veinsmobility 	totalTime 	577.6
scalar RSUExampleScenario.node[145].veinsmobility 	stopTime 	886.1
scalar RSUExampleScenario.node[145].veinsmobility 	minSpeed 	0.25537968909205
scalar RSUExampleScenario.node[145].veinsmobility 	maxSpeed 	9.9999637588114
scalar RSUExampleScenario.node[145].veinsmobility 	totalDistance 	3410.5160095702
scalar RSUExampleScenario.node[145].veinsmobility 	totalCO2Emission 	937.46907773363
scalar RSUExampleScenario.node[146].veinsmobility 	startTime 	310.5
scalar RSUExampleScenario.node[146].veinsmobility 	totalTime 	579.2
scalar RSUExampleScenario.node[146].veinsmobility 	stopTime 	889.8
scalar RSUExampleScenario.node[146].veinsmobility 	minSpeed 	0.24896850168821
scalar RSUExampleScenario.node[146].veinsmobility 	maxSpeed 	9.9999291498843
scalar RSUExampleScenario.node[146].veinsmobility 	totalDistance 	3414.9161678261
scalar RSUExampleScenario.node[146].veinsmobility 	totalCO2Emission 	942.94044793165
scalar RSUExampleScenario.node[147].veinsmobility 	startTime 	312.6
scalar RSUExampleScenario.node[147].veinsmobility 	totalTime 	580.8
scalar RSUExampleScenario.node[147].veinsmobility 	stopTime 	893.5
scalar RSUExampleScenario.node[147].veinsmobility 	minSpeed 	0.24847636576695
scalar RSUExampleScenario.node[147].veinsmobility 	maxSpeed 	9.9999538650247
scalar RSUExampleScenario.node[147].veinsmobility 	totalDistance 	3410.8033771913
scalar RSUExampleScenario.node[147].veinsmobility 	totalCO2Emission 	936.82386123917
scalar RSUExampleScenario.node[148].veinsmobility 	startTime 	314.7
scalar RSUExampleScenario.node[148].veinsmobility 	totalTime 	582.4
scalar RSUExampleScenario.node[148].veinsmobility 	stopTime 	897.2
scalar RSUExampleScenario.node[148].veinsmobility 	minSpeed 	0.25147373126564
scalar RSUExampleScenario.node[148].veinsmobility 	maxSpeed 	9.999946143087
scalar RSUExampleScenario.node[148].veinsmobility 	totalDistance 	3414.8446943649
scalar RSUExampleScenario.node[148].veinsmobility 	totalCO2Emission 	939.25219616345
scalar RSUExampleScenario.node[149].veinsmobility 	startTime 	316.8
scalar RSUExampleScenario.node[149].veinsmobility 	totalTime 	584.1
scalar RSUExampleScenario.node[149].veinsmobility 	stopTime 	901
scalar RSUExampleScenario.node[149].veinsmobility 	minSpeed 	0.24935799051076
scalar RSUExampleScenario.node[149].veinsmobility 	maxSpeed 	9.999946789823
scalar RSUExampleScenario.node[149].veinsmobility 	totalDistance 	3410.4994649355
scalar RSUExampleScenario.node[149].veinsmobility 	totalCO2Emission 	944.12590861042
scalar RSUExampleScenario.node[150].veinsmobility 	startTime 	318.9
scalar RSUExampleScenario.node[150].veinsmobility 	totalTime 	585.7
scalar RSUExampleScenario.node[150].veinsmobility 	stopTime 	904.7
scalar RSUExampleScenario.node[150].veinsmobility 	minSpeed 	0.25580751861772
scalar RSUExampleScenario.node[150].veinsmobility 	maxSpeed 	9.9999873132049
scalar RSUExampleScenario.node[150].veinsmobility 	totalDistance 	3414.5081357251
scalar RSUExampleScenario.node[150].veinsmobility 	totalCO2Emission 	944.15211477209
scalar RSUExampleScenario.node[151].veinsmobility 	startTime 	321.1
scalar RSUExampleScenario.node[151].veinsmobility 	totalTime 	587.2
scalar RSUExampleScenario.node[151].veinsmobility 	stopTime 	908.4
scalar RSUExampleScenario.node[151].veinsmobility 	minSpeed 	0.2501978873068
scalar RSUExampleScenario.node[151].veinsmobility 	maxSpeed 	9.9999951448943
scalar RSUExampleScenario.node[151].veinsmobility 	totalDistance 	3410.6745678073
scalar RSUExampleScenario.node[151].veinsmobility 	totalCO2Emission 	945.38521758762
scalar RSUExampleScenario.node[152].veinsmobility 	startTime 	323.2
scalar RSUExampleScenario.node[152].veinsmobility 	totalTime 	588.8
scalar RSUExampleScenario.node[152].veinsmobility 	stopTime 	912.1
scalar RSUExampleScenario.node[152].veinsmobility 	minSpeed 	0.25416718666721
scalar RSUExampleScenario.node[152].veinsmobility 	maxSpeed 	9.9999863172369
scalar RSUExampleScenario.node[152].veinsmobility 	totalDistance 	3414.8780549299
scalar RSUExampleScenario.node[152].veinsmobility 	totalCO2Emission 	949.65202962783
[...]
scalar RSUExampleScenario.node[902].veinsmobility 	totalCO2Emission 	170.52686615707
scalar RSUExampleScenario.node[903].veinsmobility 	startTime 	1920.6
scalar RSUExampleScenario.node[903].veinsmobility 	totalTime 	79.3
scalar RSUExampleScenario.node[903].veinsmobility 	stopTime 	2000
scalar RSUExampleScenario.node[903].veinsmobility 	minSpeed 	0.25453081087419
scalar RSUExampleScenario.node[903].veinsmobility 	maxSpeed 	9.9995113211032
scalar RSUExampleScenario.node[903].veinsmobility 	totalDistance 	648.77279285997
scalar RSUExampleScenario.node[903].veinsmobility 	totalCO2Emission 	166.6101818847
scalar RSUExampleScenario.node[904].veinsmobility 	startTime 	1922.7
scalar RSUExampleScenario.node[904].veinsmobility 	totalTime 	77.2
scalar RSUExampleScenario.node[904].veinsmobility 	stopTime 	2000
scalar RSUExampleScenario.node[904].veinsmobility 	minSpeed 	0.25980317044398
scalar RSUExampleScenario.node[904].veinsmobility 	maxSpeed 	9.9998842757521
scalar RSUExampleScenario.node[904].veinsmobility 	totalDistance 	625.96656250883
scalar RSUExampleScenario.node[904].veinsmobility 	totalCO2Emission 	162.84799661683
scalar RSUExampleScenario.node[905].veinsmobility 	startTime 	1924.8
scalar RSUExampleScenario.node[905].veinsmobility 	totalTime 	75.1
scalar RSUExampleScenario.node[905].veinsmobility 	stopTime 	2000
scalar RSUExampleScenario.node[905].veinsmobility 	minSpeed 	0.2536918677981
scalar RSUExampleScenario.node[905].veinsmobility 	maxSpeed 	9.9995272606169
scalar RSUExampleScenario.node[905].veinsmobility 	totalDistance 	606.14433406375
scalar RSUExampleScenario.node[905].veinsmobility 	totalCO2Emission 	160.61523241549
scalar RSUExampleScenario.node[906].veinsmobility 	startTime 	1926.9
scalar RSUExampleScenario.node[906].veinsmobility 	totalTime 	73
scalar RSUExampleScenario.node[906].veinsmobility 	stopTime 	2000
scalar RSUExampleScenario.node[906].veinsmobility 	minSpeed 	0.25124992118613
scalar RSUExampleScenario.node[906].veinsmobility 	maxSpeed 	9.9999540659436
scalar RSUExampleScenario.node[906].veinsmobility 	totalDistance 	585.10159623173
scalar RSUExampleScenario.node[906].veinsmobility 	totalCO2Emission 	154.79751358512
scalar RSUExampleScenario.node[907].veinsmobility 	startTime 	1929
scalar RSUExampleScenario.node[907].veinsmobility 	totalTime 	70.9
scalar RSUExampleScenario.node[907].veinsmobility 	stopTime 	2000
scalar RSUExampleScenario.node[907].veinsmobility 	minSpeed 	0.25607885303046
scalar RSUExampleScenario.node[907].veinsmobility 	maxSpeed 	9.9996687302063
scalar RSUExampleScenario.node[907].veinsmobility 	totalDistance 	564.81035355402
scalar RSUExampleScenario.node[907].veinsmobility 	totalCO2Emission 	152.39204628885
scalar RSUExampleScenario.node[908].veinsmobility 	startTime 	1931.1
scalar RSUExampleScenario.node[908].veinsmobility 	totalTime 	68.8
scalar RSUExampleScenario.node[908].veinsmobility 	stopTime 	2000
scalar RSUExampleScenario.node[908].veinsmobility 	minSpeed 	0.24783609559434
scalar RSUExampleScenario.node[908].veinsmobility 	maxSpeed 	9.9998842995125
scalar RSUExampleScenario.node[908].veinsmobility 	totalDistance 	543.29424484737
scalar RSUExampleScenario.node[908].veinsmobility 	totalCO2Emission 	146.49973265203
scalar RSUExampleScenario.node[909].veinsmobility 	startTime 	1933.2
scalar RSUExampleScenario.node[909].veinsmobility 	totalTime 	66.7
scalar RSUExampleScenario.node[909].veinsmobility 	stopTime 	2000
scalar RSUExampleScenario.node[909].veinsmobility 	minSpeed 	0.25911929609301
scalar RSUExampleScenario.node[909].veinsmobility 	maxSpeed 	9.9981569657964
scalar RSUExampleScenario.node[909].veinsmobility 	totalDistance 	521.45034909113
scalar RSUExampleScenario.node[909].veinsmobility 	totalCO2Emission 	143.41406950008
scalar RSUExampleScenario.node[910].veinsmobility 	startTime 	1935.3
scalar RSUExampleScenario.node[910].veinsmobility 	totalTime 	64.6
scalar RSUExampleScenario.node[910].veinsmobility 	stopTime 	2000
scalar RSUExampleScenario.node[910].veinsmobility 	minSpeed 	0.2547240211512
scalar RSUExampleScenario.node[910].veinsmobility 	maxSpeed 	9.9997339053778
scalar RSUExampleScenario.node[910].veinsmobility 	totalDistance 	500.53988477809
scalar RSUExampleScenario.node[910].veinsmobility 	totalCO2Emission 	139.41594247128
scalar RSUExampleScenario.node[911].veinsmobility 	startTime 	1937.4
scalar RSUExampleScenario.node[911].veinsmobility 	totalTime 	62.5
scalar RSUExampleScenario.node[911].veinsmobility 	stopTime 	2000
scalar RSUExampleScenario.node[911].veinsmobility 	minSpeed 	0.24725001532189
scalar RSUExampleScenario.node[911].veinsmobility 	maxSpeed 	9.9999032470584
scalar RSUExampleScenario.node[911].veinsmobility 	totalDistance 	479.63419902873
scalar RSUExampleScenario.node[911].veinsmobility 	totalCO2Emission 	134.56024125268
scalar RSUExampleScenario.node[912].veinsmobility 	startTime 	1939.6
scalar RSUExampleScenario.node[912].veinsmobility 	totalTime 	60.3
scalar RSUExampleScenario.node[912].veinsmobility 	stopTime 	2000
scalar RSUExampleScenario.node[912].veinsmobility 	minSpeed 	0.25891571641644
scalar RSUExampleScenario.node[912].veinsmobility 	maxSpeed 	9.9998345823213
scalar RSUExampleScenario.node[912].veinsmobility 	totalDistance 	457.71881279185
scalar RSUExampleScenario.node[912].veinsmobility 	totalCO2Emission 	129.26209721981
scalar RSUExampleScenario.node[913].veinsmobility 	startTime 	1941.7
scalar RSUExampleScenario.node[913].veinsmobility 	totalTime 	58.2
scalar RSUExampleScenario.node[913].veinsmobility 	stopTime 	2000
scalar RSUExampleScenario.node[913].veinsmobility 	minSpeed 	0.25934093383932
scalar RSUExampleScenario.node[913].veinsmobility 	maxSpeed 	9.9999869962386
scalar RSUExampleScenario.node[913].veinsmobility 	totalDistance 	436.91048520068
scalar RSUExampleScenario.node[913].veinsmobility 	totalCO2Emission 	125.99567016866
scalar RSUExampleScenario.node[914].veinsmobility 	startTime 	1943.9
scalar RSUExampleScenario.node[914].veinsmobility 	totalTime 	56
scalar RSUExampleScenario.node[914].veinsmobility 	stopTime 	2000
scalar RSUExampleScenario.node[914].veinsmobility 	minSpeed 	0.25236617398961
scalar RSUExampleScenario.node[914].veinsmobility 	maxSpeed 	9.9992628004658
scalar RSUExampleScenario.node[914].veinsmobility 	totalDistance 	416.21624901234
scalar RSUExampleScenario.node[914].veinsmobility 	totalCO2Emission 	122.96828824399
scalar RSUExampleScenario.node[915].veinsmobility 	startTime 	1946
scalar RSUExampleScenario.node[915].veinsmobility 	totalTime 	53.9
scalar RSUExampleScenario.node[915].veinsmobility 	stopTime 	2000
scalar RSUExampleScenario.node[915].veinsmobility 	minSpeed 	0.25387386632361
scalar RSUExampleScenario.node[915].veinsmobility 	maxSpeed 	9.9983287897846
scalar RSUExampleScenario.node[915].veinsmobility 	totalDistance 	395.4215376645
scalar RSUExampleScenario.node[915].veinsmobility 	totalCO2Emission 	118.31966387404
scalar RSUExampleScenario.node[916].veinsmobility 	startTime 	1948.1
scalar RSUExampleScenario.node[916].veinsmobility 	totalTime 	51.8
scalar RSUExampleScenario.node[916].veinsmobility 	stopTime 	2000
scalar RSUExampleScenario.node[916].veinsmobility 	minSpeed 	0.25604684906895
scalar RSUExampleScenario.node[916].veinsmobility 	maxSpeed 	9.9956421864824
scalar RSUExampleScenario.node[916].veinsmobility 	totalDistance 	373.59186370389
scalar RSUExampleScenario.node[916].veinsmobility 	totalCO2Emission 	113.75806649864
scalar RSUExampleScenario.node[917].veinsmobility 	startTime 	1950.2
scalar RSUExampleScenario.node[917].veinsmobility 	totalTime 	49.7
scalar RSUExampleScenario.node[917].veinsmobility 	stopTime 	2000
scalar RSUExampleScenario.node[917].veinsmobility 	minSpeed 	0.25240712461015
scalar RSUExampleScenario.node[917].veinsmobility 	maxSpeed 	9.9995704640774
scalar RSUExampleScenario.node[917].veinsmobility 	totalDistance 	352.38109272361
scalar RSUExampleScenario.node[917].veinsmobility 	totalCO2Emission 	110.41702087556
scalar RSUExampleScenario.node[918].veinsmobility 	startTime 	1952.3
scalar RSUExampleScenario.node[918].veinsmobility 	totalTime 	47.6
scalar RSUExampleScenario.node[918].veinsmobility 	stopTime 	2000
scalar RSUExampleScenario.node[918].veinsmobility 	minSpeed 	0.24848941342602
scalar RSUExampleScenario.node[918].veinsmobility 	maxSpeed 	9.9977555349981
scalar RSUExampleScenario.node[918].veinsmobility 	totalDistance 	331.74047533645
scalar RSUExampleScenario.node[918].veinsmobility 	totalCO2Emission 	106.01547803669
scalar RSUExampleScenario.node[919].veinsmobility 	startTime 	1954.4
scalar RSUExampleScenario.node[919].veinsmobility 	totalTime 	45.5
scalar RSUExampleScenario.node[919].veinsmobility 	stopTime 	2000
scalar RSUExampleScenario.node[919].veinsmobility 	minSpeed 	0.24823903648648
scalar RSUExampleScenario.node[919].veinsmobility 	maxSpeed 	9.9991954803839
scalar RSUExampleScenario.node[919].veinsmobility 	totalDistance 	309.87266232462
scalar RSUExampleScenario.node[919].veinsmobility 	totalCO2Emission 	102.21186637993
scalar RSUExampleScenario.node[920].veinsmobility 	startTime 	1956.5
scalar RSUExampleScenario.node[920].veinsmobility 	totalTime 	43.4
scalar RSUExampleScenario.node[920].veinsmobility 	stopTime 	2000
scalar RSUExampleScenario.node[920].veinsmobility 	minSpeed 	0.25310120910266
scalar RSUExampleScenario.node[920].veinsmobility 	maxSpeed 	9.9975362030487
scalar RSUExampleScenario.node[920].veinsmobility 	totalDistance 	289.02658070025
scalar RSUExampleScenario.node[920].veinsmobility 	totalCO2Emission 	98.741243968954
scalar RSUExampleScenario.node[921].veinsmobility 	startTime 	1958.7
scalar RSUExampleScenario.node[921].veinsmobility 	totalTime 	41.2
scalar RSUExampleScenario.node[921].veinsmobility 	stopTime 	2000
scalar RSUExampleScenario.node[921].veinsmobility 	minSpeed 	0.24942731314967
scalar RSUExampleScenario.node[921].veinsmobility 	maxSpeed 	9.999369701324
scalar RSUExampleScenario.node[921].veinsmobility 	totalDistance 	268.0589951656
scalar RSUExampleScenario.node[921].veinsmobility 	totalCO2Emission 	94.135879154992
scalar RSUExampleScenario.node[923].veinsmobility 	startTime 	1960.8
scalar RSUExampleScenario.node[923].veinsmobility 	totalTime 	39.1
scalar RSUExampleScenario.node[923].veinsmobility 	stopTime 	2000
scalar RSUExampleScenario.node[923].veinsmobility 	minSpeed 	0.25758356424654
scalar RSUExampleScenario.node[923].veinsmobility 	maxSpeed 	9.9921336714295
scalar RSUExampleScenario.node[923].veinsmobility 	totalDistance 	247.26519866481
scalar RSUExampleScenario.node[923].veinsmobility 	totalCO2Emission 	89.925664551215
scalar RSUExampleScenario.node[924].veinsmobility 	startTime 	1962.9
scalar RSUExampleScenario.node[924].veinsmobility 	totalTime 	37
scalar RSUExampleScenario.node[924].veinsmobility 	stopTime 	2000
scalar RSUExampleScenario.node[924].veinsmobility 	minSpeed 	0.25790275349165
scalar RSUExampleScenario.node[924].veinsmobility 	maxSpeed 	9.9894306817674
scalar RSUExampleScenario.node[924].veinsmobility 	totalDistance 	229.28403592534
scalar RSUExampleScenario.node[924].veinsmobility 	totalCO2Emission 	79.486951175509
scalar RSUExampleScenario.node[925].veinsmobility 	startTime 	1965
scalar RSUExampleScenario.node[925].veinsmobility 	totalTime 	34.9
scalar RSUExampleScenario.node[925].veinsmobility 	stopTime 	2000
scalar RSUExampleScenario.node[925].veinsmobility 	minSpeed 	0.25012433351553
scalar RSUExampleScenario.node[925].veinsmobility 	maxSpeed 	9.9985034099291
scalar RSUExampleScenario.node[925].veinsmobility 	totalDistance 	219.33091707772
scalar RSUExampleScenario.node[925].veinsmobility 	totalCO2Emission 	73.096814689834
scalar RSUExampleScenario.node[926].veinsmobility 	startTime 	1967.1
scalar RSUExampleScenario.node[926].veinsmobility 	totalTime 	32.8
scalar RSUExampleScenario.node[926].veinsmobility 	stopTime 	2000
scalar RSUExampleScenario.node[926].veinsmobility 	minSpeed 	0.25477060681675
scalar RSUExampleScenario.node[926].veinsmobility 	maxSpeed 	9.9932934536948
scalar RSUExampleScenario.node[926].veinsmobility 	totalDistance 	209.24079774944
scalar RSUExampleScenario.node[926].veinsmobility 	totalCO2Emission 	69.468513997048
scalar RSUExampleScenario.node[927].veinsmobility 	startTime 	1969.2
scalar RSUExampleScenario.node[927].veinsmobility 	totalTime 	30.7
scalar RSUExampleScenario.node[927].veinsmobility 	stopTime 	2000
scalar RSUExampleScenario.node[927].veinsmobility 	minSpeed 	0.25987293281616
scalar RSUExampleScenario.node[927].veinsmobility 	maxSpeed 	9.9946940798499
scalar RSUExampleScenario.node[927].veinsmobility 	totalDistance 	198.6680419215
scalar RSUExampleScenario.node[927].veinsmobility 	totalCO2Emission 	65.22446673817
scalar RSUExampleScenario.node[928].veinsmobility 	startTime 	1971.3
scalar RSUExampleScenario.node[928].veinsmobility 	totalTime 	28.6
scalar RSUExampleScenario.node[928].veinsmobility 	stopTime 	2000
scalar RSUExampleScenario.node[928].veinsmobility 	minSpeed 	0.25778834023792
scalar RSUExampleScenario.node[928].veinsmobility 	maxSpeed 	9.9901900826255
scalar RSUExampleScenario.node[928].veinsmobility 	totalDistance 	187.07819603414
scalar RSUExampleScenario.node[928].veinsmobility 	totalCO2Emission 	62.177499859396
scalar RSUExampleScenario.node[929].veinsmobility 	startTime 	1973.4
scalar RSUExampleScenario.node[929].veinsmobility 	totalTime 	26.5
scalar RSUExampleScenario.node[929].veinsmobility 	stopTime 	2000
scalar RSUExampleScenario.node[929].veinsmobility 	minSpeed 	0.25567873567506
scalar RSUExampleScenario.node[929].veinsmobility 	maxSpeed 	9.9971583832148
scalar RSUExampleScenario.node[929].veinsmobility 	totalDistance 	173.75690887797
scalar RSUExampleScenario.node[929].veinsmobility 	totalCO2Emission 	59.705630090639
scalar RSUExampleScenario.node[930].veinsmobility 	startTime 	1975.5
scalar RSUExampleScenario.node[930].veinsmobility 	totalTime 	24.4
scalar RSUExampleScenario.node[930].veinsmobility 	stopTime 	2000
scalar RSUExampleScenario.node[930].veinsmobility 	minSpeed 	0.25497332004504
scalar RSUExampleScenario.node[930].veinsmobility 	maxSpeed 	9.9938377727731
scalar RSUExampleScenario.node[930].veinsmobility 	totalDistance 	157.63915461804
scalar RSUExampleScenario.node[930].veinsmobility 	totalCO2Emission 	57.86881489326
scalar RSUExampleScenario.node[931].veinsmobility 	startTime 	1977.7
scalar RSUExampleScenario.node[931].veinsmobility 	totalTime 	22.2
scalar RSUExampleScenario.node[931].veinsmobility 	stopTime 	2000
scalar RSUExampleScenario.node[931].veinsmobility 	minSpeed 	0.25848268426326
scalar RSUExampleScenario.node[931].veinsmobility 	maxSpeed 	9.9873558867932
scalar RSUExampleScenario.node[931].veinsmobility 	totalDistance 	137.94343030689
scalar RSUExampleScenario.node[931].veinsmobility 	totalCO2Emission 	54.542481249001
scalar RSUExampleScenario.node[932].veinsmobility 	startTime 	1979.8
scalar RSUExampleScenario.node[932].veinsmobility 	totalTime 	20.1
scalar RSUExampleScenario.node[932].veinsmobility 	stopTime 	2000
scalar RSUExampleScenario.node[932].veinsmobility 	minSpeed 	0.25423070731806
scalar RSUExampleScenario.node[932].veinsmobility 	maxSpeed 	9.9948309973162
scalar RSUExampleScenario.node[932].veinsmobility 	totalDistance 	120.62878265545
scalar RSUExampleScenario.node[932].veinsmobility 	totalCO2Emission 	42.96460890486
scalar RSUExampleScenario.node[933].veinsmobility 	startTime 	1981.9
scalar RSUExampleScenario.node[933].veinsmobility 	totalTime 	18
scalar RSUExampleScenario.node[933].veinsmobility 	stopTime 	2000
scalar RSUExampleScenario.node[933].veinsmobility 	minSpeed 	0.25346322120051
scalar RSUExampleScenario.node[933].veinsmobility 	maxSpeed 	9.9907088027685
scalar RSUExampleScenario.node[933].veinsmobility 	totalDistance 	110.83365199643
scalar RSUExampleScenario.node[933].veinsmobility 	totalCO2Emission 	37.297582663886
scalar RSUExampleScenario.node[934].veinsmobility 	startTime 	1984.1
scalar RSUExampleScenario.node[934].veinsmobility 	totalTime 	15.8
scalar RSUExampleScenario.node[934].veinsmobility 	stopTime 	2000
scalar RSUExampleScenario.node[934].veinsmobility 	minSpeed 	0.25023348782817
scalar RSUExampleScenario.node[934].veinsmobility 	maxSpeed 	9.9962486497266
scalar RSUExampleScenario.node[934].veinsmobility 	totalDistance 	100.76461754804
scalar RSUExampleScenario.node[934].veinsmobility 	totalCO2Emission 	33.425261887419
scalar RSUExampleScenario.node[935].veinsmobility 	startTime 	1986.2
scalar RSUExampleScenario.node[935].veinsmobility 	totalTime 	13.7
scalar RSUExampleScenario.node[935].veinsmobility 	stopTime 	2000
scalar RSUExampleScenario.node[935].veinsmobility 	minSpeed 	0.25199907608959
scalar RSUExampleScenario.node[935].veinsmobility 	maxSpeed 	9.9816418801271
scalar RSUExampleScenario.node[935].veinsmobility 	totalDistance 	90.176929645031
scalar RSUExampleScenario.node[935].veinsmobility 	totalCO2Emission 	30.066756436246
scalar RSUExampleScenario.node[936].veinsmobility 	startTime 	1988.3
scalar RSUExampleScenario.node[936].veinsmobility 	totalTime 	11.6
scalar RSUExampleScenario.node[936].veinsmobility 	stopTime 	2000
scalar RSUExampleScenario.node[936].veinsmobility 	minSpeed 	0.25738492016424
scalar RSUExampleScenario.node[936].veinsmobility 	maxSpeed 	9.9931294357288
scalar RSUExampleScenario.node[936].veinsmobility 	totalDistance 	78.556263145109
scalar RSUExampleScenario.node[936].veinsmobility 	totalCO2Emission 	27.095331690469
scalar RSUExampleScenario.node[938].veinsmobility 	startTime 	1990.4
scalar RSUExampleScenario.node[938].veinsmobility 	totalTime 	9.5
scalar RSUExampleScenario.node[938].veinsmobility 	stopTime 	2000
scalar RSUExampleScenario.node[938].veinsmobility 	minSpeed 	0.25864500299678
scalar RSUExampleScenario.node[938].veinsmobility 	maxSpeed 	9.9922839686158
scalar RSUExampleScenario.node[938].veinsmobility 	totalDistance 	65.471253876442
scalar RSUExampleScenario.node[938].veinsmobility 	totalCO2Emission 	24.426458149278
scalar RSUExampleScenario.node[939].veinsmobility 	startTime 	1992.5
scalar RSUExampleScenario.node[939].veinsmobility 	totalTime 	7.4
scalar RSUExampleScenario.node[939].veinsmobility 	stopTime 	2000
scalar RSUExampleScenario.node[939].veinsmobility 	minSpeed 	0.24841783898231
scalar RSUExampleScenario.node[939].veinsmobility 	maxSpeed 	9.9784291975666
scalar RSUExampleScenario.node[939].veinsmobility 	totalDistance 	48.810965613855
scalar RSUExampleScenario.node[939].veinsmobility 	totalCO2Emission 	22.348234968992
scalar RSUExampleScenario.node[940].veinsmobility 	startTime 	1994.6
scalar RSUExampleScenario.node[940].veinsmobility 	totalTime 	5.3
scalar RSUExampleScenario.node[940].veinsmobility 	stopTime 	2000
scalar RSUExampleScenario.node[940].veinsmobility 	minSpeed 	0.25445097401855
scalar RSUExampleScenario.node[940].veinsmobility 	maxSpeed 	9.9891842830065
scalar RSUExampleScenario.node[940].veinsmobility 	totalDistance 	29.69072148116
scalar RSUExampleScenario.node[940].veinsmobility 	totalCO2Emission 	19.750122732234
scalar RSUExampleScenario.node[941].veinsmobility 	startTime 	1996.7
scalar RSUExampleScenario.node[941].veinsmobility 	totalTime 	3.2
scalar RSUExampleScenario.node[941].veinsmobility 	stopTime 	2000
scalar RSUExampleScenario.node[941].veinsmobility 	minSpeed 	0.2576917560827
scalar RSUExampleScenario.node[941].veinsmobility 	maxSpeed 	6.327259014137
scalar RSUExampleScenario.node[941].veinsmobility 	totalDistance 	10.547477277094
scalar RSUExampleScenario.node[941].veinsmobility 	totalCO2Emission 	8.9328788128982
scalar RSUExampleScenario.node[942].veinsmobility 	startTime 	1998.9
scalar RSUExampleScenario.node[942].veinsmobility 	totalTime 	1
scalar RSUExampleScenario.node[942].veinsmobility 	stopTime 	2000
scalar RSUExampleScenario.node[942].veinsmobility 	minSpeed 	0.25646647949121
scalar RSUExampleScenario.node[942].veinsmobility 	maxSpeed 	2.2614935803101
scalar RSUExampleScenario.node[942].veinsmobility 	totalDistance 	1.2864597819374
scalar RSUExampleScenario.node[942].veinsmobility 	totalCO2Emission 	1.7230005548246
