version 2
run statistic3-1447-20150325-09:55:53-21640
attr c 23
attr configname statistic3
attr datetime 20150325-09:55:53
attr experiment statistic3
attr inifile omnetpp.ini
attr iterationvars "$p=1/10, $c=23"
attr iterationvars2 "$p=1/10, $c=23, $repetition=47"
attr measurement "$p=1/10, $c=23"
attr network RSUExampleScenario
attr p 1/10
attr processid 21640
attr repetition 47
attr replication #47
attr resultdir results
attr runnumber 1447
attr seedset 1447

scalar . 	c 	23
scalar RSUExampleScenario.rsu[0].appl 	NumberofCH 	8
scalar RSUExampleScenario.rsu[0].appl 	NumberofON 	92
scalar RSUExampleScenario.rsu[0].appl 	NumberofFN 	0
scalar RSUExampleScenario.rsu[0].appl 	meanClusterNodes 	11.5
scalar RSUExampleScenario.rsu[0].appl 	varClusterNodes 	6.4420493633626
scalar RSUExampleScenario.rsu[0].appl 	sumCHutility 	299.44752570762
scalar RSUExampleScenario.rsu[0].appl 	meanCHutility 	37.430940713452
scalar RSUExampleScenario.rsu[0].appl 	varCHutility 	1.8354058237097
scalar RSUExampleScenario.rsu[0].appl 	sumDiffCHutility 	-24.56608736227
scalar RSUExampleScenario.rsu[0].appl 	meanDiffCHutility 	-3.0707609202838
scalar RSUExampleScenario.rsu[0].appl 	varDiffCHutility 	1.620057003598
scalar RSUExampleScenario.rsu[0].appl 	expectedCHutility 	274.88143834535
scalar RSUExampleScenario.rsu[0].appl 	meanExpectedCHutility 	34.360179793169
scalar RSUExampleScenario.rsu[0].appl 	varExpectedCHutility 	0.51345229876741
scalar RSUExampleScenario.node[0].veinsmobility 	startTime 	0.1
scalar RSUExampleScenario.node[0].veinsmobility 	totalTime 	349.9
scalar RSUExampleScenario.node[0].veinsmobility 	stopTime 	350
scalar RSUExampleScenario.node[0].veinsmobility 	minSpeed 	0
scalar RSUExampleScenario.node[0].veinsmobility 	maxSpeed 	13.99993121743
scalar RSUExampleScenario.node[0].veinsmobility 	totalDistance 	3134.5495751113
scalar RSUExampleScenario.node[0].veinsmobility 	totalCO2Emission 	740.39360294205
scalar RSUExampleScenario.node[1].veinsmobility 	startTime 	2.5
scalar RSUExampleScenario.node[1].veinsmobility 	totalTime 	347.5
scalar RSUExampleScenario.node[1].veinsmobility 	stopTime 	350
scalar RSUExampleScenario.node[1].veinsmobility 	minSpeed 	0
scalar RSUExampleScenario.node[1].veinsmobility 	maxSpeed 	13.999960802144
scalar RSUExampleScenario.node[1].veinsmobility 	totalDistance 	3082.1615784476
scalar RSUExampleScenario.node[1].veinsmobility 	totalCO2Emission 	732.65952390292
scalar RSUExampleScenario.node[10].veinsmobility 	startTime 	24.2
scalar RSUExampleScenario.node[10].veinsmobility 	totalTime 	325.8
scalar RSUExampleScenario.node[10].veinsmobility 	stopTime 	350
scalar RSUExampleScenario.node[10].veinsmobility 	minSpeed 	0
scalar RSUExampleScenario.node[10].veinsmobility 	maxSpeed 	13.999947997394
scalar RSUExampleScenario.node[10].veinsmobility 	totalDistance 	2789.7112825238
scalar RSUExampleScenario.node[10].veinsmobility 	totalCO2Emission 	662.67052998655
scalar RSUExampleScenario.node[11].veinsmobility 	startTime 	26.6
scalar RSUExampleScenario.node[11].veinsmobility 	totalTime 	323.4
scalar RSUExampleScenario.node[11].veinsmobility 	stopTime 	350
scalar RSUExampleScenario.node[11].veinsmobility 	minSpeed 	0
scalar RSUExampleScenario.node[11].veinsmobility 	maxSpeed 	13.99996082203
scalar RSUExampleScenario.node[11].veinsmobility 	totalDistance 	2758.0013626096
scalar RSUExampleScenario.node[11].veinsmobility 	totalCO2Emission 	655.08630802578
scalar RSUExampleScenario.node[12].veinsmobility 	startTime 	29
scalar RSUExampleScenario.node[12].veinsmobility 	totalTime 	321
scalar RSUExampleScenario.node[12].veinsmobility 	stopTime 	350
scalar RSUExampleScenario.node[12].veinsmobility 	minSpeed 	0
scalar RSUExampleScenario.node[12].veinsmobility 	maxSpeed 	13.999959838109
scalar RSUExampleScenario.node[12].veinsmobility 	totalDistance 	2717.2655921465
scalar RSUExampleScenario.node[12].veinsmobility 	totalCO2Emission 	648.40409320879
scalar RSUExampleScenario.node[13].veinsmobility 	startTime 	31.4
scalar RSUExampleScenario.node[13].veinsmobility 	totalTime 	318.6
scalar RSUExampleScenario.node[13].veinsmobility 	stopTime 	350
scalar RSUExampleScenario.node[13].veinsmobility 	minSpeed 	0
scalar RSUExampleScenario.node[13].veinsmobility 	maxSpeed 	13.999989414257
scalar RSUExampleScenario.node[13].veinsmobility 	totalDistance 	2685.772916855
scalar RSUExampleScenario.node[13].veinsmobility 	totalCO2Emission 	647.64074881812
scalar RSUExampleScenario.node[14].veinsmobility 	startTime 	33.8
scalar RSUExampleScenario.node[14].veinsmobility 	totalTime 	316.2
scalar RSUExampleScenario.node[14].veinsmobility 	stopTime 	350
scalar RSUExampleScenario.node[14].veinsmobility 	minSpeed 	0
scalar RSUExampleScenario.node[14].veinsmobility 	maxSpeed 	13.999990847567
scalar RSUExampleScenario.node[14].veinsmobility 	totalDistance 	2648.9881469265
scalar RSUExampleScenario.node[14].veinsmobility 	totalCO2Emission 	637.26406451173
scalar RSUExampleScenario.node[15].veinsmobility 	startTime 	36.2
scalar RSUExampleScenario.node[15].veinsmobility 	totalTime 	313.8
scalar RSUExampleScenario.node[15].veinsmobility 	stopTime 	350
scalar RSUExampleScenario.node[15].veinsmobility 	minSpeed 	0
scalar RSUExampleScenario.node[15].veinsmobility 	maxSpeed 	13.999998768154
scalar RSUExampleScenario.node[15].veinsmobility 	totalDistance 	2618.6133060877
scalar RSUExampleScenario.node[15].veinsmobility 	totalCO2Emission 	628.94826767361
scalar RSUExampleScenario.node[16].veinsmobility 	startTime 	38.6
scalar RSUExampleScenario.node[16].veinsmobility 	totalTime 	311.4
scalar RSUExampleScenario.node[16].veinsmobility 	stopTime 	350
scalar RSUExampleScenario.node[16].veinsmobility 	minSpeed 	0
scalar RSUExampleScenario.node[16].veinsmobility 	maxSpeed 	13.999881829584
scalar RSUExampleScenario.node[16].veinsmobility 	totalDistance 	2580.0737207181
scalar RSUExampleScenario.node[16].veinsmobility 	totalCO2Emission 	624.97518657422
scalar RSUExampleScenario.node[17].veinsmobility 	startTime 	41
scalar RSUExampleScenario.node[17].veinsmobility 	totalTime 	309
scalar RSUExampleScenario.node[17].veinsmobility 	stopTime 	350
scalar RSUExampleScenario.node[17].veinsmobility 	minSpeed 	0
scalar RSUExampleScenario.node[17].veinsmobility 	maxSpeed 	13.999838385342
scalar RSUExampleScenario.node[17].veinsmobility 	totalDistance 	2544.6874271607
scalar RSUExampleScenario.node[17].veinsmobility 	totalCO2Emission 	621.04796758339
scalar RSUExampleScenario.node[18].veinsmobility 	startTime 	43.4
scalar RSUExampleScenario.node[18].veinsmobility 	totalTime 	306.6
scalar RSUExampleScenario.node[18].veinsmobility 	stopTime 	350
scalar RSUExampleScenario.node[18].veinsmobility 	minSpeed 	0
scalar RSUExampleScenario.node[18].veinsmobility 	maxSpeed 	13.999881626607
scalar RSUExampleScenario.node[18].veinsmobility 	totalDistance 	2505.0768778991
scalar RSUExampleScenario.node[18].veinsmobility 	totalCO2Emission 	613.95743222375
scalar RSUExampleScenario.node[19].veinsmobility 	startTime 	45.8
scalar RSUExampleScenario.node[19].veinsmobility 	totalTime 	304.2
scalar RSUExampleScenario.node[19].veinsmobility 	stopTime 	350
scalar RSUExampleScenario.node[19].veinsmobility 	minSpeed 	0
scalar RSUExampleScenario.node[19].veinsmobility 	maxSpeed 	13.999799395609
scalar RSUExampleScenario.node[19].veinsmobility 	totalDistance 	2477.1241142253
scalar RSUExampleScenario.node[19].veinsmobility 	totalCO2Emission 	606.96442786856
scalar RSUExampleScenario.node[2].veinsmobility 	startTime 	4.9
scalar RSUExampleScenario.node[2].veinsmobility 	totalTime 	345.1
scalar RSUExampleScenario.node[2].veinsmobility 	stopTime 	350
scalar RSUExampleScenario.node[2].veinsmobility 	minSpeed 	0
scalar RSUExampleScenario.node[2].veinsmobility 	maxSpeed 	13.999869595296
scalar RSUExampleScenario.node[2].veinsmobility 	totalDistance 	3038.581725054
scalar RSUExampleScenario.node[2].veinsmobility 	totalCO2Emission 	726.64315339387
scalar RSUExampleScenario.node[20].veinsmobility 	startTime 	48.3
scalar RSUExampleScenario.node[20].veinsmobility 	totalTime 	301.7
scalar RSUExampleScenario.node[20].veinsmobility 	stopTime 	350
scalar RSUExampleScenario.node[20].veinsmobility 	minSpeed 	0
scalar RSUExampleScenario.node[20].veinsmobility 	maxSpeed 	13.999988097085
scalar RSUExampleScenario.node[20].veinsmobility 	totalDistance 	2438.3684354677
scalar RSUExampleScenario.node[20].veinsmobility 	totalCO2Emission 	605.87431678122
scalar RSUExampleScenario.node[21].veinsmobility 	startTime 	50.7
scalar RSUExampleScenario.node[21].veinsmobility 	totalTime 	299.3
scalar RSUExampleScenario.node[21].veinsmobility 	stopTime 	350
scalar RSUExampleScenario.node[21].veinsmobility 	minSpeed 	0
scalar RSUExampleScenario.node[21].veinsmobility 	maxSpeed 	13.999902068393
scalar RSUExampleScenario.node[21].veinsmobility 	totalDistance 	2407.0190733575
scalar RSUExampleScenario.node[21].veinsmobility 	totalCO2Emission 	599.73553321578
scalar RSUExampleScenario.node[22].veinsmobility 	startTime 	53.1
scalar RSUExampleScenario.node[22].veinsmobility 	totalTime 	296.9
scalar RSUExampleScenario.node[22].veinsmobility 	stopTime 	350
scalar RSUExampleScenario.node[22].veinsmobility 	minSpeed 	0
scalar RSUExampleScenario.node[22].veinsmobility 	maxSpeed 	13.999972003719
scalar RSUExampleScenario.node[22].veinsmobility 	totalDistance 	2371.2416146038
scalar RSUExampleScenario.node[22].veinsmobility 	totalCO2Emission 	592.480188442
scalar RSUExampleScenario.node[23].veinsmobility 	startTime 	55.5
scalar RSUExampleScenario.node[23].veinsmobility 	totalTime 	294.5
scalar RSUExampleScenario.node[23].veinsmobility 	stopTime 	350
scalar RSUExampleScenario.node[23].veinsmobility 	minSpeed 	0
scalar RSUExampleScenario.node[23].veinsmobility 	maxSpeed 	13.999876436254
scalar RSUExampleScenario.node[23].veinsmobility 	totalDistance 	2340.671227631
scalar RSUExampleScenario.node[23].veinsmobility 	totalCO2Emission 	583.99034735897
scalar RSUExampleScenario.node[24].veinsmobility 	startTime 	57.9
scalar RSUExampleScenario.node[24].veinsmobility 	totalTime 	292.1
scalar RSUExampleScenario.node[24].veinsmobility 	stopTime 	350
scalar RSUExampleScenario.node[24].veinsmobility 	minSpeed 	0
scalar RSUExampleScenario.node[24].veinsmobility 	maxSpeed 	13.999989249054
scalar RSUExampleScenario.node[24].veinsmobility 	totalDistance 	2301.9109158723
scalar RSUExampleScenario.node[24].veinsmobility 	totalCO2Emission 	581.99656768704
scalar RSUExampleScenario.node[25].veinsmobility 	startTime 	60.3
scalar RSUExampleScenario.node[25].veinsmobility 	totalTime 	289.7
scalar RSUExampleScenario.node[25].veinsmobility 	stopTime 	350
scalar RSUExampleScenario.node[25].veinsmobility 	minSpeed 	0
scalar RSUExampleScenario.node[25].veinsmobility 	maxSpeed 	13.999987808904
scalar RSUExampleScenario.node[25].veinsmobility 	totalDistance 	2273.2605645765
scalar RSUExampleScenario.node[25].veinsmobility 	totalCO2Emission 	574.01659792866
scalar RSUExampleScenario.node[26].veinsmobility 	startTime 	62.7
scalar RSUExampleScenario.node[26].veinsmobility 	totalTime 	287.3
scalar RSUExampleScenario.node[26].veinsmobility 	stopTime 	350
scalar RSUExampleScenario.node[26].veinsmobility 	minSpeed 	0
scalar RSUExampleScenario.node[26].veinsmobility 	maxSpeed 	13.999876696921
scalar RSUExampleScenario.node[26].veinsmobility 	totalDistance 	2235.3579841826
scalar RSUExampleScenario.node[26].veinsmobility 	totalCO2Emission 	570.34612239584
scalar RSUExampleScenario.node[27].veinsmobility 	startTime 	65.1
scalar RSUExampleScenario.node[27].veinsmobility 	totalTime 	284.9
scalar RSUExampleScenario.node[27].veinsmobility 	stopTime 	350
scalar RSUExampleScenario.node[27].veinsmobility 	minSpeed 	0
scalar RSUExampleScenario.node[27].veinsmobility 	maxSpeed 	13.999918081155
scalar RSUExampleScenario.node[27].veinsmobility 	totalDistance 	2206.0482101025
scalar RSUExampleScenario.node[27].veinsmobility 	totalCO2Emission 	563.06907653875
scalar RSUExampleScenario.node[28].veinsmobility 	startTime 	67.5
scalar RSUExampleScenario.node[28].veinsmobility 	totalTime 	282.5
scalar RSUExampleScenario.node[28].veinsmobility 	stopTime 	350
scalar RSUExampleScenario.node[28].veinsmobility 	minSpeed 	0
scalar RSUExampleScenario.node[28].veinsmobility 	maxSpeed 	13.999814742415
scalar RSUExampleScenario.node[28].veinsmobility 	totalDistance 	2164.5097572249
scalar RSUExampleScenario.node[28].veinsmobility 	totalCO2Emission 	557.38599970928
scalar RSUExampleScenario.node[29].veinsmobility 	startTime 	69.9
scalar RSUExampleScenario.node[29].veinsmobility 	totalTime 	280.1
scalar RSUExampleScenario.node[29].veinsmobility 	stopTime 	350
scalar RSUExampleScenario.node[29].veinsmobility 	minSpeed 	0
scalar RSUExampleScenario.node[29].veinsmobility 	maxSpeed 	13.999872833365
scalar RSUExampleScenario.node[29].veinsmobility 	totalDistance 	2135.3182437757
scalar RSUExampleScenario.node[29].veinsmobility 	totalCO2Emission 	552.33098648661
scalar RSUExampleScenario.node[3].veinsmobility 	startTime 	7.3
scalar RSUExampleScenario.node[3].veinsmobility 	totalTime 	342.7
scalar RSUExampleScenario.node[3].veinsmobility 	stopTime 	350
scalar RSUExampleScenario.node[3].veinsmobility 	minSpeed 	0
scalar RSUExampleScenario.node[3].veinsmobility 	maxSpeed 	13.999994108821
scalar RSUExampleScenario.node[3].veinsmobility 	totalDistance 	2999.3526697906
scalar RSUExampleScenario.node[3].veinsmobility 	totalCO2Emission 	716.71456990535
scalar RSUExampleScenario.node[30].veinsmobility 	startTime 	72.4
scalar RSUExampleScenario.node[30].veinsmobility 	totalTime 	277.6
scalar RSUExampleScenario.node[30].veinsmobility 	stopTime 	350
scalar RSUExampleScenario.node[30].veinsmobility 	minSpeed 	0
scalar RSUExampleScenario.node[30].veinsmobility 	maxSpeed 	13.999997502044
scalar RSUExampleScenario.node[30].veinsmobility 	totalDistance 	2099.489855193
scalar RSUExampleScenario.node[30].veinsmobility 	totalCO2Emission 	543.59148847563
scalar RSUExampleScenario.node[31].veinsmobility 	startTime 	74.8
scalar RSUExampleScenario.node[31].veinsmobility 	totalTime 	275.2
scalar RSUExampleScenario.node[31].veinsmobility 	stopTime 	350
scalar RSUExampleScenario.node[31].veinsmobility 	minSpeed 	0
scalar RSUExampleScenario.node[31].veinsmobility 	maxSpeed 	13.99957835933
scalar RSUExampleScenario.node[31].veinsmobility 	totalDistance 	2066.5095537175
scalar RSUExampleScenario.node[31].veinsmobility 	totalCO2Emission 	539.13793430394
scalar RSUExampleScenario.node[32].veinsmobility 	startTime 	77.2
scalar RSUExampleScenario.node[32].veinsmobility 	totalTime 	272.8
scalar RSUExampleScenario.node[32].veinsmobility 	stopTime 	350
scalar RSUExampleScenario.node[32].veinsmobility 	minSpeed 	0
scalar RSUExampleScenario.node[32].veinsmobility 	maxSpeed 	13.999850574834
scalar RSUExampleScenario.node[32].veinsmobility 	totalDistance 	2031.6020585531
scalar RSUExampleScenario.node[32].veinsmobility 	totalCO2Emission 	534.27059030811
scalar RSUExampleScenario.node[33].veinsmobility 	startTime 	79.6
scalar RSUExampleScenario.node[33].veinsmobility 	totalTime 	270.4
scalar RSUExampleScenario.node[33].veinsmobility 	stopTime 	350
scalar RSUExampleScenario.node[33].veinsmobility 	minSpeed 	0
scalar RSUExampleScenario.node[33].veinsmobility 	maxSpeed 	13.999881216628
scalar RSUExampleScenario.node[33].veinsmobility 	totalDistance 	1998.3590742184
scalar RSUExampleScenario.node[33].veinsmobility 	totalCO2Emission 	525.58688513555
scalar RSUExampleScenario.node[34].veinsmobility 	startTime 	82
scalar RSUExampleScenario.node[34].veinsmobility 	totalTime 	268
scalar RSUExampleScenario.node[34].veinsmobility 	stopTime 	350
scalar RSUExampleScenario.node[34].veinsmobility 	minSpeed 	0
scalar RSUExampleScenario.node[34].veinsmobility 	maxSpeed 	13.99983864147
scalar RSUExampleScenario.node[34].veinsmobility 	totalDistance 	1963.7568948989
scalar RSUExampleScenario.node[34].veinsmobility 	totalCO2Emission 	520.71990153049
scalar RSUExampleScenario.node[35].veinsmobility 	startTime 	84.4
scalar RSUExampleScenario.node[35].veinsmobility 	totalTime 	265.6
scalar RSUExampleScenario.node[35].veinsmobility 	stopTime 	350
scalar RSUExampleScenario.node[35].veinsmobility 	minSpeed 	0
scalar RSUExampleScenario.node[35].veinsmobility 	maxSpeed 	13.999979459844
scalar RSUExampleScenario.node[35].veinsmobility 	totalDistance 	1931.6053358876
scalar RSUExampleScenario.node[35].veinsmobility 	totalCO2Emission 	516.53067109549
scalar RSUExampleScenario.node[36].veinsmobility 	startTime 	86.8
scalar RSUExampleScenario.node[36].veinsmobility 	totalTime 	263.2
scalar RSUExampleScenario.node[36].veinsmobility 	stopTime 	350
scalar RSUExampleScenario.node[36].veinsmobility 	minSpeed 	0
scalar RSUExampleScenario.node[36].veinsmobility 	maxSpeed 	13.999968103901
scalar RSUExampleScenario.node[36].veinsmobility 	totalDistance 	1897.0189064073
scalar RSUExampleScenario.node[36].veinsmobility 	totalCO2Emission 	511.20946162037
scalar RSUExampleScenario.node[37].veinsmobility 	startTime 	89.2
scalar RSUExampleScenario.node[37].veinsmobility 	totalTime 	260.8
scalar RSUExampleScenario.node[37].veinsmobility 	stopTime 	350
scalar RSUExampleScenario.node[37].veinsmobility 	minSpeed 	0
scalar RSUExampleScenario.node[37].veinsmobility 	maxSpeed 	13.99988154107
scalar RSUExampleScenario.node[37].veinsmobility 	totalDistance 	1863.0519772364
scalar RSUExampleScenario.node[37].veinsmobility 	totalCO2Emission 	506.67341176991
scalar RSUExampleScenario.node[38].veinsmobility 	startTime 	91.6
scalar RSUExampleScenario.node[38].veinsmobility 	totalTime 	258.4
scalar RSUExampleScenario.node[38].veinsmobility 	stopTime 	350
scalar RSUExampleScenario.node[38].veinsmobility 	minSpeed 	0
scalar RSUExampleScenario.node[38].veinsmobility 	maxSpeed 	13.999849342897
scalar RSUExampleScenario.node[38].veinsmobility 	totalDistance 	1830.2172084006
scalar RSUExampleScenario.node[38].veinsmobility 	totalCO2Emission 	502.23522986367
scalar RSUExampleScenario.node[39].veinsmobility 	startTime 	94
scalar RSUExampleScenario.node[39].veinsmobility 	totalTime 	256
scalar RSUExampleScenario.node[39].veinsmobility 	stopTime 	350
scalar RSUExampleScenario.node[39].veinsmobility 	minSpeed 	0
scalar RSUExampleScenario.node[39].veinsmobility 	maxSpeed 	13.999614482352
scalar RSUExampleScenario.node[39].veinsmobility 	totalDistance 	1797.0389619068
scalar RSUExampleScenario.node[39].veinsmobility 	totalCO2Emission 	496.03776154457
scalar RSUExampleScenario.node[4].veinsmobility 	startTime 	9.7
scalar RSUExampleScenario.node[4].veinsmobility 	totalTime 	340.3
scalar RSUExampleScenario.node[4].veinsmobility 	stopTime 	350
scalar RSUExampleScenario.node[4].veinsmobility 	minSpeed 	0
scalar RSUExampleScenario.node[4].veinsmobility 	maxSpeed 	13.99998139987
scalar RSUExampleScenario.node[4].veinsmobility 	totalDistance 	2946.7515057757
scalar RSUExampleScenario.node[4].veinsmobility 	totalCO2Emission 	700.29579063363
scalar RSUExampleScenario.node[40].veinsmobility 	startTime 	96.5
scalar RSUExampleScenario.node[40].veinsmobility 	totalTime 	253.5
scalar RSUExampleScenario.node[40].veinsmobility 	stopTime 	350
scalar RSUExampleScenario.node[40].veinsmobility 	minSpeed 	0
scalar RSUExampleScenario.node[40].veinsmobility 	maxSpeed 	13.999766091746
scalar RSUExampleScenario.node[40].veinsmobility 	totalDistance 	1763.9368380425
scalar RSUExampleScenario.node[40].veinsmobility 	totalCO2Emission 	490.78932030704
scalar RSUExampleScenario.node[41].veinsmobility 	startTime 	98.9
scalar RSUExampleScenario.node[41].veinsmobility 	totalTime 	251.1
scalar RSUExampleScenario.node[41].veinsmobility 	stopTime 	350
scalar RSUExampleScenario.node[41].veinsmobility 	minSpeed 	0
scalar RSUExampleScenario.node[41].veinsmobility 	maxSpeed 	13.999699615838
scalar RSUExampleScenario.node[41].veinsmobility 	totalDistance 	1731.1992698575
scalar RSUExampleScenario.node[41].veinsmobility 	totalCO2Emission 	486.87989281672
scalar RSUExampleScenario.node[42].veinsmobility 	startTime 	101.3
scalar RSUExampleScenario.node[42].veinsmobility 	totalTime 	248.7
scalar RSUExampleScenario.node[42].veinsmobility 	stopTime 	350
scalar RSUExampleScenario.node[42].veinsmobility 	minSpeed 	0
scalar RSUExampleScenario.node[42].veinsmobility 	maxSpeed 	13.999959312081
scalar RSUExampleScenario.node[42].veinsmobility 	totalDistance 	1696.2461286604
scalar RSUExampleScenario.node[42].veinsmobility 	totalCO2Emission 	476.16696751613
scalar RSUExampleScenario.node[43].veinsmobility 	startTime 	103.7
scalar RSUExampleScenario.node[43].veinsmobility 	totalTime 	246.3
scalar RSUExampleScenario.node[43].veinsmobility 	stopTime 	350
scalar RSUExampleScenario.node[43].veinsmobility 	minSpeed 	0
scalar RSUExampleScenario.node[43].veinsmobility 	maxSpeed 	13.999963338783
scalar RSUExampleScenario.node[43].veinsmobility 	totalDistance 	1663.8953568259
scalar RSUExampleScenario.node[43].veinsmobility 	totalCO2Emission 	471.21892269005
scalar RSUExampleScenario.node[44].veinsmobility 	startTime 	106.1
scalar RSUExampleScenario.node[44].veinsmobility 	totalTime 	243.9
scalar RSUExampleScenario.node[44].veinsmobility 	stopTime 	350
scalar RSUExampleScenario.node[44].veinsmobility 	minSpeed 	0
scalar RSUExampleScenario.node[44].veinsmobility 	maxSpeed 	13.999966649525
scalar RSUExampleScenario.node[44].veinsmobility 	totalDistance 	1628.9329800978
scalar RSUExampleScenario.node[44].veinsmobility 	totalCO2Emission 	467.4607562788
scalar RSUExampleScenario.node[45].veinsmobility 	startTime 	108.5
scalar RSUExampleScenario.node[45].veinsmobility 	totalTime 	241.5
scalar RSUExampleScenario.node[45].veinsmobility 	stopTime 	350
scalar RSUExampleScenario.node[45].veinsmobility 	minSpeed 	0
scalar RSUExampleScenario.node[45].veinsmobility 	maxSpeed 	13.999888210711
scalar RSUExampleScenario.node[45].veinsmobility 	totalDistance 	1595.3046980059
scalar RSUExampleScenario.node[45].veinsmobility 	totalCO2Emission 	463.20085630628
scalar RSUExampleScenario.node[46].veinsmobility 	startTime 	110.9
scalar RSUExampleScenario.node[46].veinsmobility 	totalTime 	239.1
scalar RSUExampleScenario.node[46].veinsmobility 	stopTime 	350
scalar RSUExampleScenario.node[46].veinsmobility 	minSpeed 	0
scalar RSUExampleScenario.node[46].veinsmobility 	maxSpeed 	13.999677859212
scalar RSUExampleScenario.node[46].veinsmobility 	totalDistance 	1562.3299103265
scalar RSUExampleScenario.node[46].veinsmobility 	totalCO2Emission 	455.26996736714
scalar RSUExampleScenario.node[47].veinsmobility 	startTime 	113.3
scalar RSUExampleScenario.node[47].veinsmobility 	totalTime 	236.7
scalar RSUExampleScenario.node[47].veinsmobility 	stopTime 	350
scalar RSUExampleScenario.node[47].veinsmobility 	minSpeed 	0
scalar RSUExampleScenario.node[47].veinsmobility 	maxSpeed 	13.999948400473
scalar RSUExampleScenario.node[47].veinsmobility 	totalDistance 	1528.7308294222
scalar RSUExampleScenario.node[47].veinsmobility 	totalCO2Emission 	450.19533385012
scalar RSUExampleScenario.node[48].veinsmobility 	startTime 	115.7
scalar RSUExampleScenario.node[48].veinsmobility 	totalTime 	234.3
scalar RSUExampleScenario.node[48].veinsmobility 	stopTime 	350
scalar RSUExampleScenario.node[48].veinsmobility 	minSpeed 	0
scalar RSUExampleScenario.node[48].veinsmobility 	maxSpeed 	13.999919010988
scalar RSUExampleScenario.node[48].veinsmobility 	totalDistance 	1494.0484469302
scalar RSUExampleScenario.node[48].veinsmobility 	totalCO2Emission 	444.6062073789
scalar RSUExampleScenario.node[49].veinsmobility 	startTime 	118.1
scalar RSUExampleScenario.node[49].veinsmobility 	totalTime 	231.9
scalar RSUExampleScenario.node[49].veinsmobility 	stopTime 	350
scalar RSUExampleScenario.node[49].veinsmobility 	minSpeed 	0
scalar RSUExampleScenario.node[49].veinsmobility 	maxSpeed 	13.999935144791
scalar RSUExampleScenario.node[49].veinsmobility 	totalDistance 	1462.9649696034
scalar RSUExampleScenario.node[49].veinsmobility 	totalCO2Emission 	438.60855909468
scalar RSUExampleScenario.node[5].veinsmobility 	startTime 	12.1
scalar RSUExampleScenario.node[5].veinsmobility 	totalTime 	337.9
scalar RSUExampleScenario.node[5].veinsmobility 	stopTime 	350
scalar RSUExampleScenario.node[5].veinsmobility 	minSpeed 	0
scalar RSUExampleScenario.node[5].veinsmobility 	maxSpeed 	13.999780585994
scalar RSUExampleScenario.node[5].veinsmobility 	totalDistance 	2917.9138622971
scalar RSUExampleScenario.node[5].veinsmobility 	totalCO2Emission 	686.55177497686
scalar RSUExampleScenario.node[50].veinsmobility 	startTime 	120.6
scalar RSUExampleScenario.node[50].veinsmobility 	totalTime 	229.4
scalar RSUExampleScenario.node[50].veinsmobility 	stopTime 	350
scalar RSUExampleScenario.node[50].veinsmobility 	minSpeed 	0
scalar RSUExampleScenario.node[50].veinsmobility 	maxSpeed 	13.999991188233
scalar RSUExampleScenario.node[50].veinsmobility 	totalDistance 	1427.8195603061
scalar RSUExampleScenario.node[50].veinsmobility 	totalCO2Emission 	433.14351425216
scalar RSUExampleScenario.node[51].veinsmobility 	startTime 	123
scalar RSUExampleScenario.node[51].veinsmobility 	totalTime 	227
scalar RSUExampleScenario.node[51].veinsmobility 	stopTime 	350
scalar RSUExampleScenario.node[51].veinsmobility 	minSpeed 	0
scalar RSUExampleScenario.node[51].veinsmobility 	maxSpeed 	13.99992347606
scalar RSUExampleScenario.node[51].veinsmobility 	totalDistance 	1394.2014433252
scalar RSUExampleScenario.node[51].veinsmobility 	totalCO2Emission 	428.27542075909
scalar RSUExampleScenario.node[52].veinsmobility 	startTime 	125.4
scalar RSUExampleScenario.node[52].veinsmobility 	totalTime 	224.6
scalar RSUExampleScenario.node[52].veinsmobility 	stopTime 	350
scalar RSUExampleScenario.node[52].veinsmobility 	minSpeed 	0
scalar RSUExampleScenario.node[52].veinsmobility 	maxSpeed 	13.999968179935
scalar RSUExampleScenario.node[52].veinsmobility 	totalDistance 	1361.0986770621
scalar RSUExampleScenario.node[52].veinsmobility 	totalCO2Emission 	419.90352206509
scalar RSUExampleScenario.node[53].veinsmobility 	startTime 	127.8
scalar RSUExampleScenario.node[53].veinsmobility 	totalTime 	222.2
scalar RSUExampleScenario.node[53].veinsmobility 	stopTime 	350
scalar RSUExampleScenario.node[53].veinsmobility 	minSpeed 	0
scalar RSUExampleScenario.node[53].veinsmobility 	maxSpeed 	13.999989489443
scalar RSUExampleScenario.node[53].veinsmobility 	totalDistance 	1327.387825136
scalar RSUExampleScenario.node[53].veinsmobility 	totalCO2Emission 	416.35300747397
scalar RSUExampleScenario.node[54].veinsmobility 	startTime 	130.2
scalar RSUExampleScenario.node[54].veinsmobility 	totalTime 	219.8
scalar RSUExampleScenario.node[54].veinsmobility 	stopTime 	350
scalar RSUExampleScenario.node[54].veinsmobility 	minSpeed 	0
scalar RSUExampleScenario.node[54].veinsmobility 	maxSpeed 	13.999193447647
scalar RSUExampleScenario.node[54].veinsmobility 	totalDistance 	1291.6287464146
scalar RSUExampleScenario.node[54].veinsmobility 	totalCO2Emission 	411.38419696467
scalar RSUExampleScenario.node[55].veinsmobility 	startTime 	132.6
scalar RSUExampleScenario.node[55].veinsmobility 	totalTime 	217.4
scalar RSUExampleScenario.node[55].veinsmobility 	stopTime 	350
scalar RSUExampleScenario.node[55].veinsmobility 	minSpeed 	0
scalar RSUExampleScenario.node[55].veinsmobility 	maxSpeed 	13.999979140153
scalar RSUExampleScenario.node[55].veinsmobility 	totalDistance 	1259.9984557308
scalar RSUExampleScenario.node[55].veinsmobility 	totalCO2Emission 	405.46193251708
scalar RSUExampleScenario.node[56].veinsmobility 	startTime 	135
scalar RSUExampleScenario.node[56].veinsmobility 	totalTime 	215
scalar RSUExampleScenario.node[56].veinsmobility 	stopTime 	350
scalar RSUExampleScenario.node[56].veinsmobility 	minSpeed 	0
scalar RSUExampleScenario.node[56].veinsmobility 	maxSpeed 	13.999558485704
scalar RSUExampleScenario.node[56].veinsmobility 	totalDistance 	1226.2491357679
scalar RSUExampleScenario.node[56].veinsmobility 	totalCO2Emission 	400.64885555677
scalar RSUExampleScenario.node[57].veinsmobility 	startTime 	137.4
scalar RSUExampleScenario.node[57].veinsmobility 	totalTime 	212.6
scalar RSUExampleScenario.node[57].veinsmobility 	stopTime 	350
scalar RSUExampleScenario.node[57].veinsmobility 	minSpeed 	0
scalar RSUExampleScenario.node[57].veinsmobility 	maxSpeed 	13.999583678897
scalar RSUExampleScenario.node[57].veinsmobility 	totalDistance 	1192.768219946
scalar RSUExampleScenario.node[57].veinsmobility 	totalCO2Emission 	393.54152011229
scalar RSUExampleScenario.node[58].veinsmobility 	startTime 	139.8
scalar RSUExampleScenario.node[58].veinsmobility 	totalTime 	210.2
scalar RSUExampleScenario.node[58].veinsmobility 	stopTime 	350
scalar RSUExampleScenario.node[58].veinsmobility 	minSpeed 	0
scalar RSUExampleScenario.node[58].veinsmobility 	maxSpeed 	13.999748257003
scalar RSUExampleScenario.node[58].veinsmobility 	totalDistance 	1157.3994840091
scalar RSUExampleScenario.node[58].veinsmobility 	totalCO2Emission 	388.30127616986
scalar RSUExampleScenario.node[59].veinsmobility 	startTime 	142.2
scalar RSUExampleScenario.node[59].veinsmobility 	totalTime 	207.8
scalar RSUExampleScenario.node[59].veinsmobility 	stopTime 	350
scalar RSUExampleScenario.node[59].veinsmobility 	minSpeed 	0
scalar RSUExampleScenario.node[59].veinsmobility 	maxSpeed 	13.999980849416
scalar RSUExampleScenario.node[59].veinsmobility 	totalDistance 	1123.550091747
scalar RSUExampleScenario.node[59].veinsmobility 	totalCO2Emission 	383.85961994823
scalar RSUExampleScenario.node[6].veinsmobility 	startTime 	14.5
scalar RSUExampleScenario.node[6].veinsmobility 	totalTime 	335.5
scalar RSUExampleScenario.node[6].veinsmobility 	stopTime 	350
scalar RSUExampleScenario.node[6].veinsmobility 	minSpeed 	0
scalar RSUExampleScenario.node[6].veinsmobility 	maxSpeed 	13.999928512834
scalar RSUExampleScenario.node[6].veinsmobility 	totalDistance 	2901.3476519513
scalar RSUExampleScenario.node[6].veinsmobility 	totalCO2Emission 	680.17750402903
scalar RSUExampleScenario.node[60].veinsmobility 	startTime 	144.7
scalar RSUExampleScenario.node[60].veinsmobility 	totalTime 	205.3
scalar RSUExampleScenario.node[60].veinsmobility 	stopTime 	350
scalar RSUExampleScenario.node[60].veinsmobility 	minSpeed 	0
scalar RSUExampleScenario.node[60].veinsmobility 	maxSpeed 	13.999685969548
scalar RSUExampleScenario.node[60].veinsmobility 	totalDistance 	1091.1416323866
scalar RSUExampleScenario.node[60].veinsmobility 	totalCO2Emission 	377.68857921187
scalar RSUExampleScenario.node[61].veinsmobility 	startTime 	147.1
scalar RSUExampleScenario.node[61].veinsmobility 	totalTime 	202.9
scalar RSUExampleScenario.node[61].veinsmobility 	stopTime 	350
scalar RSUExampleScenario.node[61].veinsmobility 	minSpeed 	0
scalar RSUExampleScenario.node[61].veinsmobility 	maxSpeed 	13.999950790827
scalar RSUExampleScenario.node[61].veinsmobility 	totalDistance 	1057.3597843108
scalar RSUExampleScenario.node[61].veinsmobility 	totalCO2Emission 	372.03775399483
scalar RSUExampleScenario.node[62].veinsmobility 	startTime 	149.5
scalar RSUExampleScenario.node[62].veinsmobility 	totalTime 	200.5
scalar RSUExampleScenario.node[62].veinsmobility 	stopTime 	350
scalar RSUExampleScenario.node[62].veinsmobility 	minSpeed 	0
scalar RSUExampleScenario.node[62].veinsmobility 	maxSpeed 	13.999577169707
scalar RSUExampleScenario.node[62].veinsmobility 	totalDistance 	1024.7839974258
scalar RSUExampleScenario.node[62].veinsmobility 	totalCO2Emission 	364.59284123714
scalar RSUExampleScenario.node[63].veinsmobility 	startTime 	151.9
scalar RSUExampleScenario.node[63].veinsmobility 	totalTime 	198.1
scalar RSUExampleScenario.node[63].veinsmobility 	stopTime 	350
scalar RSUExampleScenario.node[63].veinsmobility 	minSpeed 	0
scalar RSUExampleScenario.node[63].veinsmobility 	maxSpeed 	13.999864972739
scalar RSUExampleScenario.node[63].veinsmobility 	totalDistance 	984.72012352417
scalar RSUExampleScenario.node[63].veinsmobility 	totalCO2Emission 	352.19877013271
scalar RSUExampleScenario.node[64].veinsmobility 	startTime 	154.3
scalar RSUExampleScenario.node[64].veinsmobility 	totalTime 	195.7
scalar RSUExampleScenario.node[64].veinsmobility 	stopTime 	350
scalar RSUExampleScenario.node[64].veinsmobility 	minSpeed 	0
scalar RSUExampleScenario.node[64].veinsmobility 	maxSpeed 	13.99984719947
scalar RSUExampleScenario.node[64].veinsmobility 	totalDistance 	953.55978895324
scalar RSUExampleScenario.node[64].veinsmobility 	totalCO2Emission 	337.09063593733
scalar RSUExampleScenario.node[65].veinsmobility 	startTime 	156.7
scalar RSUExampleScenario.node[65].veinsmobility 	totalTime 	193.3
scalar RSUExampleScenario.node[65].veinsmobility 	stopTime 	350
scalar RSUExampleScenario.node[65].veinsmobility 	minSpeed 	0
scalar RSUExampleScenario.node[65].veinsmobility 	maxSpeed 	13.999987145762
scalar RSUExampleScenario.node[65].veinsmobility 	totalDistance 	940.30389304236
scalar RSUExampleScenario.node[65].veinsmobility 	totalCO2Emission 	331.48410579875
scalar RSUExampleScenario.node[66].veinsmobility 	startTime 	159.1
scalar RSUExampleScenario.node[66].veinsmobility 	totalTime 	190.9
scalar RSUExampleScenario.node[66].veinsmobility 	stopTime 	350
scalar RSUExampleScenario.node[66].veinsmobility 	minSpeed 	0
scalar RSUExampleScenario.node[66].veinsmobility 	maxSpeed 	13.999805703184
scalar RSUExampleScenario.node[66].veinsmobility 	totalDistance 	927.9639527484
scalar RSUExampleScenario.node[66].veinsmobility 	totalCO2Emission 	328.61871471688
scalar RSUExampleScenario.node[67].veinsmobility 	startTime 	161.5
scalar RSUExampleScenario.node[67].veinsmobility 	totalTime 	188.5
scalar RSUExampleScenario.node[67].veinsmobility 	stopTime 	350
scalar RSUExampleScenario.node[67].veinsmobility 	minSpeed 	0
scalar RSUExampleScenario.node[67].veinsmobility 	maxSpeed 	13.999459646572
scalar RSUExampleScenario.node[67].veinsmobility 	totalDistance 	912.48506289587
scalar RSUExampleScenario.node[67].veinsmobility 	totalCO2Emission 	324.72605986406
scalar RSUExampleScenario.node[68].veinsmobility 	startTime 	163.9
scalar RSUExampleScenario.node[68].veinsmobility 	totalTime 	186.1
scalar RSUExampleScenario.node[68].veinsmobility 	stopTime 	350
scalar RSUExampleScenario.node[68].veinsmobility 	minSpeed 	0
scalar RSUExampleScenario.node[68].veinsmobility 	maxSpeed 	13.999967816204
scalar RSUExampleScenario.node[68].veinsmobility 	totalDistance 	891.65647776481
scalar RSUExampleScenario.node[68].veinsmobility 	totalCO2Emission 	320.70633509997
scalar RSUExampleScenario.node[69].veinsmobility 	startTime 	166.3
scalar RSUExampleScenario.node[69].veinsmobility 	totalTime 	183.7
scalar RSUExampleScenario.node[69].veinsmobility 	stopTime 	350
scalar RSUExampleScenario.node[69].veinsmobility 	minSpeed 	0
scalar RSUExampleScenario.node[69].veinsmobility 	maxSpeed 	13.999662265419
scalar RSUExampleScenario.node[69].veinsmobility 	totalDistance 	858.06794213697
scalar RSUExampleScenario.node[69].veinsmobility 	totalCO2Emission 	317.35667444207
scalar RSUExampleScenario.node[7].veinsmobility 	startTime 	16.9
scalar RSUExampleScenario.node[7].veinsmobility 	totalTime 	333.1
scalar RSUExampleScenario.node[7].veinsmobility 	stopTime 	350
scalar RSUExampleScenario.node[7].veinsmobility 	minSpeed 	0
scalar RSUExampleScenario.node[7].veinsmobility 	maxSpeed 	13.999863290444
scalar RSUExampleScenario.node[7].veinsmobility 	totalDistance 	2889.3563767128
scalar RSUExampleScenario.node[7].veinsmobility 	totalCO2Emission 	680.43791583344
scalar RSUExampleScenario.node[70].veinsmobility 	startTime 	168.8
scalar RSUExampleScenario.node[70].veinsmobility 	totalTime 	181.2
scalar RSUExampleScenario.node[70].veinsmobility 	stopTime 	350
scalar RSUExampleScenario.node[70].veinsmobility 	minSpeed 	0
scalar RSUExampleScenario.node[70].veinsmobility 	maxSpeed 	13.999826956333
scalar RSUExampleScenario.node[70].veinsmobility 	totalDistance 	824.72709395825
scalar RSUExampleScenario.node[70].veinsmobility 	totalCO2Emission 	309.94444321356
scalar RSUExampleScenario.node[71].veinsmobility 	startTime 	171.2
scalar RSUExampleScenario.node[71].veinsmobility 	totalTime 	178.8
scalar RSUExampleScenario.node[71].veinsmobility 	stopTime 	350
scalar RSUExampleScenario.node[71].veinsmobility 	minSpeed 	0
scalar RSUExampleScenario.node[71].veinsmobility 	maxSpeed 	13.999466009901
scalar RSUExampleScenario.node[71].veinsmobility 	totalDistance 	792.31542275899
scalar RSUExampleScenario.node[71].veinsmobility 	totalCO2Emission 	304.43534866506
scalar RSUExampleScenario.node[72].veinsmobility 	startTime 	173.6
scalar RSUExampleScenario.node[72].veinsmobility 	totalTime 	176.4
scalar RSUExampleScenario.node[72].veinsmobility 	stopTime 	350
scalar RSUExampleScenario.node[72].veinsmobility 	minSpeed 	0
scalar RSUExampleScenario.node[72].veinsmobility 	maxSpeed 	13.999900663353
scalar RSUExampleScenario.node[72].veinsmobility 	totalDistance 	759.20636967261
scalar RSUExampleScenario.node[72].veinsmobility 	totalCO2Emission 	299.51356601831
scalar RSUExampleScenario.node[73].veinsmobility 	startTime 	176
scalar RSUExampleScenario.node[73].veinsmobility 	totalTime 	174
scalar RSUExampleScenario.node[73].veinsmobility 	stopTime 	350
scalar RSUExampleScenario.node[73].veinsmobility 	minSpeed 	0
scalar RSUExampleScenario.node[73].veinsmobility 	maxSpeed 	13.999927841914
scalar RSUExampleScenario.node[73].veinsmobility 	totalDistance 	725.48285127254
scalar RSUExampleScenario.node[73].veinsmobility 	totalCO2Emission 	294.30301046219
scalar RSUExampleScenario.node[74].veinsmobility 	startTime 	178.4
scalar RSUExampleScenario.node[74].veinsmobility 	totalTime 	171.6
scalar RSUExampleScenario.node[74].veinsmobility 	stopTime 	350
scalar RSUExampleScenario.node[74].veinsmobility 	minSpeed 	0
scalar RSUExampleScenario.node[74].veinsmobility 	maxSpeed 	13.999346293397
scalar RSUExampleScenario.node[74].veinsmobility 	totalDistance 	691.40662090254
scalar RSUExampleScenario.node[74].veinsmobility 	totalCO2Emission 	287.87537729498
scalar RSUExampleScenario.node[75].veinsmobility 	startTime 	180.8
scalar RSUExampleScenario.node[75].veinsmobility 	totalTime 	169.2
scalar RSUExampleScenario.node[75].veinsmobility 	stopTime 	350
scalar RSUExampleScenario.node[75].veinsmobility 	minSpeed 	0
scalar RSUExampleScenario.node[75].veinsmobility 	maxSpeed 	13.999895794748
scalar RSUExampleScenario.node[75].veinsmobility 	totalDistance 	658.59966705806
scalar RSUExampleScenario.node[75].veinsmobility 	totalCO2Emission 	282.93823578398
scalar RSUExampleScenario.node[76].veinsmobility 	startTime 	183.2
scalar RSUExampleScenario.node[76].veinsmobility 	totalTime 	166.8
scalar RSUExampleScenario.node[76].veinsmobility 	stopTime 	350
scalar RSUExampleScenario.node[76].veinsmobility 	minSpeed 	0
scalar RSUExampleScenario.node[76].veinsmobility 	maxSpeed 	13.999719766022
scalar RSUExampleScenario.node[76].veinsmobility 	totalDistance 	624.71628968687
scalar RSUExampleScenario.node[76].veinsmobility 	totalCO2Emission 	277.2624836886
scalar RSUExampleScenario.node[77].veinsmobility 	startTime 	185.6
scalar RSUExampleScenario.node[77].veinsmobility 	totalTime 	164.4
scalar RSUExampleScenario.node[77].veinsmobility 	stopTime 	350
scalar RSUExampleScenario.node[77].veinsmobility 	minSpeed 	0
scalar RSUExampleScenario.node[77].veinsmobility 	maxSpeed 	13.99841448108
scalar RSUExampleScenario.node[77].veinsmobility 	totalDistance 	590.70870049618
scalar RSUExampleScenario.node[77].veinsmobility 	totalCO2Emission 	271.35723177183
scalar RSUExampleScenario.node[78].veinsmobility 	startTime 	188
scalar RSUExampleScenario.node[78].veinsmobility 	totalTime 	162
scalar RSUExampleScenario.node[78].veinsmobility 	stopTime 	350
scalar RSUExampleScenario.node[78].veinsmobility 	minSpeed 	0
scalar RSUExampleScenario.node[78].veinsmobility 	maxSpeed 	13.999758244378
scalar RSUExampleScenario.node[78].veinsmobility 	totalDistance 	557.57756527829
scalar RSUExampleScenario.node[78].veinsmobility 	totalCO2Emission 	265.69963749629
scalar RSUExampleScenario.node[79].veinsmobility 	startTime 	190.4
scalar RSUExampleScenario.node[79].veinsmobility 	totalTime 	159.6
scalar RSUExampleScenario.node[79].veinsmobility 	stopTime 	350
scalar RSUExampleScenario.node[79].veinsmobility 	minSpeed 	0
scalar RSUExampleScenario.node[79].veinsmobility 	maxSpeed 	13.999778834719
scalar RSUExampleScenario.node[79].veinsmobility 	totalDistance 	525.64208930904
scalar RSUExampleScenario.node[79].veinsmobility 	totalCO2Emission 	258.6491566652
scalar RSUExampleScenario.node[8].veinsmobility 	startTime 	19.3
scalar RSUExampleScenario.node[8].veinsmobility 	totalTime 	330.7
scalar RSUExampleScenario.node[8].veinsmobility 	stopTime 	350
scalar RSUExampleScenario.node[8].veinsmobility 	minSpeed 	0
scalar RSUExampleScenario.node[8].veinsmobility 	maxSpeed 	13.999967203883
scalar RSUExampleScenario.node[8].veinsmobility 	totalDistance 	2861.7950285816
scalar RSUExampleScenario.node[8].veinsmobility 	totalCO2Emission 	671.18043435258
scalar RSUExampleScenario.node[80].veinsmobility 	startTime 	192.9
scalar RSUExampleScenario.node[80].veinsmobility 	totalTime 	157.1
scalar RSUExampleScenario.node[80].veinsmobility 	stopTime 	350
scalar RSUExampleScenario.node[80].veinsmobility 	minSpeed 	0
scalar RSUExampleScenario.node[80].veinsmobility 	maxSpeed 	13.999327005155
scalar RSUExampleScenario.node[80].veinsmobility 	totalDistance 	491.0772212665
scalar RSUExampleScenario.node[80].veinsmobility 	totalCO2Emission 	253.24624012036
scalar RSUExampleScenario.node[81].veinsmobility 	startTime 	195.3
scalar RSUExampleScenario.node[81].veinsmobility 	totalTime 	154.7
scalar RSUExampleScenario.node[81].veinsmobility 	stopTime 	350
scalar RSUExampleScenario.node[81].veinsmobility 	minSpeed 	0
scalar RSUExampleScenario.node[81].veinsmobility 	maxSpeed 	13.99995716363
scalar RSUExampleScenario.node[81].veinsmobility 	totalDistance 	458.31103983017
scalar RSUExampleScenario.node[81].veinsmobility 	totalCO2Emission 	247.80148545041
scalar RSUExampleScenario.node[82].veinsmobility 	startTime 	197.7
scalar RSUExampleScenario.node[82].veinsmobility 	totalTime 	152.3
scalar RSUExampleScenario.node[82].veinsmobility 	stopTime 	350
scalar RSUExampleScenario.node[82].veinsmobility 	minSpeed 	0
scalar RSUExampleScenario.node[82].veinsmobility 	maxSpeed 	13.997525858602
scalar RSUExampleScenario.node[82].veinsmobility 	totalDistance 	422.74352594768
scalar RSUExampleScenario.node[82].veinsmobility 	totalCO2Emission 	243.06547408515
scalar RSUExampleScenario.node[83].veinsmobility 	startTime 	200.1
scalar RSUExampleScenario.node[83].veinsmobility 	totalTime 	149.9
scalar RSUExampleScenario.node[83].veinsmobility 	stopTime 	350
scalar RSUExampleScenario.node[83].veinsmobility 	minSpeed 	0
scalar RSUExampleScenario.node[83].veinsmobility 	maxSpeed 	13.990521315159
scalar RSUExampleScenario.node[83].veinsmobility 	totalDistance 	388.41121742308
scalar RSUExampleScenario.node[83].veinsmobility 	totalCO2Emission 	236.74843658347
scalar RSUExampleScenario.node[84].veinsmobility 	startTime 	202.5
scalar RSUExampleScenario.node[84].veinsmobility 	totalTime 	147.5
scalar RSUExampleScenario.node[84].veinsmobility 	stopTime 	350
scalar RSUExampleScenario.node[84].veinsmobility 	minSpeed 	0
scalar RSUExampleScenario.node[84].veinsmobility 	maxSpeed 	13.999059931182
scalar RSUExampleScenario.node[84].veinsmobility 	totalDistance 	354.28022402251
scalar RSUExampleScenario.node[84].veinsmobility 	totalCO2Emission 	230.90890162111
scalar RSUExampleScenario.node[85].veinsmobility 	startTime 	204.9
scalar RSUExampleScenario.node[85].veinsmobility 	totalTime 	145.1
scalar RSUExampleScenario.node[85].veinsmobility 	stopTime 	350
scalar RSUExampleScenario.node[85].veinsmobility 	minSpeed 	0
scalar RSUExampleScenario.node[85].veinsmobility 	maxSpeed 	13.996459523591
scalar RSUExampleScenario.node[85].veinsmobility 	totalDistance 	321.9740586588
scalar RSUExampleScenario.node[85].veinsmobility 	totalCO2Emission 	225.78307070336
scalar RSUExampleScenario.node[86].veinsmobility 	startTime 	207.3
scalar RSUExampleScenario.node[86].veinsmobility 	totalTime 	142.7
scalar RSUExampleScenario.node[86].veinsmobility 	stopTime 	350
scalar RSUExampleScenario.node[86].veinsmobility 	minSpeed 	0
scalar RSUExampleScenario.node[86].veinsmobility 	maxSpeed 	13.814910937866
scalar RSUExampleScenario.node[86].veinsmobility 	totalDistance 	285.70929510194
scalar RSUExampleScenario.node[86].veinsmobility 	totalCO2Emission 	217.84079777475
scalar RSUExampleScenario.node[87].veinsmobility 	startTime 	209.7
scalar RSUExampleScenario.node[87].veinsmobility 	totalTime 	140.3
scalar RSUExampleScenario.node[87].veinsmobility 	stopTime 	350
scalar RSUExampleScenario.node[87].veinsmobility 	minSpeed 	0
scalar RSUExampleScenario.node[87].veinsmobility 	maxSpeed 	13.8699899317
scalar RSUExampleScenario.node[87].veinsmobility 	totalDistance 	246.98792351091
scalar RSUExampleScenario.node[87].veinsmobility 	totalCO2Emission 	200.23599063626
scalar RSUExampleScenario.node[88].veinsmobility 	startTime 	212.1
scalar RSUExampleScenario.node[88].veinsmobility 	totalTime 	137.9
scalar RSUExampleScenario.node[88].veinsmobility 	stopTime 	350
scalar RSUExampleScenario.node[88].veinsmobility 	minSpeed 	0
scalar RSUExampleScenario.node[88].veinsmobility 	maxSpeed 	13.874323076236
scalar RSUExampleScenario.node[88].veinsmobility 	totalDistance 	225.57082073397
scalar RSUExampleScenario.node[88].veinsmobility 	totalCO2Emission 	190.11404358566
scalar RSUExampleScenario.node[89].veinsmobility 	startTime 	214.5
scalar RSUExampleScenario.node[89].veinsmobility 	totalTime 	135.5
scalar RSUExampleScenario.node[89].veinsmobility 	stopTime 	350
scalar RSUExampleScenario.node[89].veinsmobility 	minSpeed 	0
scalar RSUExampleScenario.node[89].veinsmobility 	maxSpeed 	13.70659230412
scalar RSUExampleScenario.node[89].veinsmobility 	totalDistance 	215.14806980831
scalar RSUExampleScenario.node[89].veinsmobility 	totalCO2Emission 	185.74878009634
scalar RSUExampleScenario.node[9].veinsmobility 	startTime 	21.7
scalar RSUExampleScenario.node[9].veinsmobility 	totalTime 	328.3
scalar RSUExampleScenario.node[9].veinsmobility 	stopTime 	350
scalar RSUExampleScenario.node[9].veinsmobility 	minSpeed 	0
scalar RSUExampleScenario.node[9].veinsmobility 	maxSpeed 	13.999945706199
scalar RSUExampleScenario.node[9].veinsmobility 	totalDistance 	2829.0754613697
scalar RSUExampleScenario.node[9].veinsmobility 	totalCO2Emission 	668.90078799241
scalar RSUExampleScenario.node[90].veinsmobility 	startTime 	217
scalar RSUExampleScenario.node[90].veinsmobility 	totalTime 	133
scalar RSUExampleScenario.node[90].veinsmobility 	stopTime 	350
scalar RSUExampleScenario.node[90].veinsmobility 	minSpeed 	0
scalar RSUExampleScenario.node[90].veinsmobility 	maxSpeed 	13.873611123378
scalar RSUExampleScenario.node[90].veinsmobility 	totalDistance 	201.84098755876
scalar RSUExampleScenario.node[90].veinsmobility 	totalCO2Emission 	182.73977495917
scalar RSUExampleScenario.node[91].veinsmobility 	startTime 	219.4
scalar RSUExampleScenario.node[91].veinsmobility 	totalTime 	130.6
scalar RSUExampleScenario.node[91].veinsmobility 	stopTime 	350
scalar RSUExampleScenario.node[91].veinsmobility 	minSpeed 	0
scalar RSUExampleScenario.node[91].veinsmobility 	maxSpeed 	13.828419069892
scalar RSUExampleScenario.node[91].veinsmobility 	totalDistance 	185.22317739859
scalar RSUExampleScenario.node[91].veinsmobility 	totalCO2Emission 	180.57560042113
scalar RSUExampleScenario.node[92].veinsmobility 	startTime 	221.8
scalar RSUExampleScenario.node[92].veinsmobility 	totalTime 	128.2
scalar RSUExampleScenario.node[92].veinsmobility 	stopTime 	350
scalar RSUExampleScenario.node[92].veinsmobility 	minSpeed 	0
scalar RSUExampleScenario.node[92].veinsmobility 	maxSpeed 	13.889277391722
scalar RSUExampleScenario.node[92].veinsmobility 	totalDistance 	151.00005083552
scalar RSUExampleScenario.node[92].veinsmobility 	totalCO2Emission 	167.71388092073
scalar RSUExampleScenario.node[93].veinsmobility 	startTime 	224.2
scalar RSUExampleScenario.node[93].veinsmobility 	totalTime 	125.8
scalar RSUExampleScenario.node[93].veinsmobility 	stopTime 	350
scalar RSUExampleScenario.node[93].veinsmobility 	minSpeed 	0
scalar RSUExampleScenario.node[93].veinsmobility 	maxSpeed 	13.855406581378
scalar RSUExampleScenario.node[93].veinsmobility 	totalDistance 	123.73330849837
scalar RSUExampleScenario.node[93].veinsmobility 	totalCO2Emission 	154.58571375303
scalar RSUExampleScenario.node[94].veinsmobility 	startTime 	226.6
scalar RSUExampleScenario.node[94].veinsmobility 	totalTime 	123.4
scalar RSUExampleScenario.node[94].veinsmobility 	stopTime 	350
scalar RSUExampleScenario.node[94].veinsmobility 	minSpeed 	0
scalar RSUExampleScenario.node[94].veinsmobility 	maxSpeed 	13.843790731386
scalar RSUExampleScenario.node[94].veinsmobility 	totalDistance 	112.26314681912
scalar RSUExampleScenario.node[94].veinsmobility 	totalCO2Emission 	148.71963218073
scalar RSUExampleScenario.node[95].veinsmobility 	startTime 	229
scalar RSUExampleScenario.node[95].veinsmobility 	totalTime 	121
scalar RSUExampleScenario.node[95].veinsmobility 	stopTime 	350
scalar RSUExampleScenario.node[95].veinsmobility 	minSpeed 	0
scalar RSUExampleScenario.node[95].veinsmobility 	maxSpeed 	13.672191378623
scalar RSUExampleScenario.node[95].veinsmobility 	totalDistance 	99.031600115142
scalar RSUExampleScenario.node[95].veinsmobility 	totalCO2Emission 	144.57461909786
scalar RSUExampleScenario.node[96].veinsmobility 	startTime 	231.4
scalar RSUExampleScenario.node[96].veinsmobility 	totalTime 	118.6
scalar RSUExampleScenario.node[96].veinsmobility 	stopTime 	350
scalar RSUExampleScenario.node[96].veinsmobility 	minSpeed 	0
scalar RSUExampleScenario.node[96].veinsmobility 	maxSpeed 	13.669657048852
scalar RSUExampleScenario.node[96].veinsmobility 	totalDistance 	83.325106415005
scalar RSUExampleScenario.node[96].veinsmobility 	totalCO2Emission 	141.98727778073
scalar RSUExampleScenario.node[97].veinsmobility 	startTime 	233.8
scalar RSUExampleScenario.node[97].veinsmobility 	totalTime 	116.2
scalar RSUExampleScenario.node[97].veinsmobility 	stopTime 	350
scalar RSUExampleScenario.node[97].veinsmobility 	minSpeed 	0
scalar RSUExampleScenario.node[97].veinsmobility 	maxSpeed 	11.920323770476
scalar RSUExampleScenario.node[97].veinsmobility 	totalDistance 	54.206829907222
scalar RSUExampleScenario.node[97].veinsmobility 	totalCO2Emission 	133.33583176388
scalar RSUExampleScenario.node[98].veinsmobility 	startTime 	236.2
scalar RSUExampleScenario.node[98].veinsmobility 	totalTime 	113.8
scalar RSUExampleScenario.node[98].veinsmobility 	stopTime 	350
scalar RSUExampleScenario.node[98].veinsmobility 	minSpeed 	0
scalar RSUExampleScenario.node[98].veinsmobility 	maxSpeed 	7.8157704432248
scalar RSUExampleScenario.node[98].veinsmobility 	totalDistance 	22.022348154069
scalar RSUExampleScenario.node[98].veinsmobility 	totalCO2Emission 	119.47979457719
scalar RSUExampleScenario.node[99].veinsmobility 	startTime 	238.6
scalar RSUExampleScenario.node[99].veinsmobility 	totalTime 	111.4
scalar RSUExampleScenario.node[99].veinsmobility 	stopTime 	350
scalar RSUExampleScenario.node[99].veinsmobility 	minSpeed 	0
scalar RSUExampleScenario.node[99].veinsmobility 	maxSpeed 	3.0206928306057
scalar RSUExampleScenario.node[99].veinsmobility 	totalDistance 	3.25847259673
scalar RSUExampleScenario.node[99].veinsmobility 	totalCO2Emission 	109.75193472945
