version 2
run statisticRVV-232-20150326-09:48:54-3276
attr c 6
attr configname statisticRVV
attr datetime 20150326-09:48:54
attr experiment statisticRVV
attr inifile omnetpp.ini
attr iterationvars "$sc=\"erlangen-medium.launchd.xml\", $p=1/5, $c=6"
attr iterationvars2 "$sc=\"erlangen-medium.launchd.xml\", $p=1/5, $c=6, $repetition=2"
attr measurement "$sc=\"erlangen-medium.launchd.xml\", $p=1/5, $c=6"
attr network RSUExampleScenario
attr p 1/5
attr processid 3276
attr repetition 2
attr replication #2
attr resultdir results
attr runnumber 232
attr sc "\"erlangen-medium.launchd.xml\""
attr seedset 232

scalar . 	c 	6
scalar RSUExampleScenario.node[0].veinsmobility 	startTime 	0.1
scalar RSUExampleScenario.node[0].veinsmobility 	totalTime 	264.1
scalar RSUExampleScenario.node[0].veinsmobility 	stopTime 	264.3
scalar RSUExampleScenario.node[0].veinsmobility 	minSpeed 	0.25574774776143
scalar RSUExampleScenario.node[0].veinsmobility 	maxSpeed 	13.999983038337
scalar RSUExampleScenario.node[0].veinsmobility 	totalDistance 	3409.5567700676
scalar RSUExampleScenario.node[0].veinsmobility 	totalCO2Emission 	694.61021528862
scalar RSUExampleScenario.node[1].veinsmobility 	startTime 	3.1
scalar RSUExampleScenario.node[1].veinsmobility 	totalTime 	265.2
scalar RSUExampleScenario.node[1].veinsmobility 	stopTime 	268.4
scalar RSUExampleScenario.node[1].veinsmobility 	minSpeed 	0.25183627518103
scalar RSUExampleScenario.node[1].veinsmobility 	maxSpeed 	13.999892616973
scalar RSUExampleScenario.node[1].veinsmobility 	totalDistance 	3409.7189890477
scalar RSUExampleScenario.node[1].veinsmobility 	totalCO2Emission 	687.80084435337
scalar RSUExampleScenario.node[2].veinsmobility 	startTime 	6.1
scalar RSUExampleScenario.node[2].veinsmobility 	totalTime 	265.9
scalar RSUExampleScenario.node[2].veinsmobility 	stopTime 	272.1
scalar RSUExampleScenario.node[2].veinsmobility 	minSpeed 	0.25293911848078
scalar RSUExampleScenario.node[2].veinsmobility 	maxSpeed 	13.99989631118
scalar RSUExampleScenario.node[2].veinsmobility 	totalDistance 	3409.2593597584
scalar RSUExampleScenario.node[2].veinsmobility 	totalCO2Emission 	695.06930181149
scalar RSUExampleScenario.node[3].veinsmobility 	startTime 	9.1
scalar RSUExampleScenario.node[3].veinsmobility 	totalTime 	266.4
scalar RSUExampleScenario.node[3].veinsmobility 	stopTime 	275.6
scalar RSUExampleScenario.node[3].veinsmobility 	minSpeed 	0.24752359104855
scalar RSUExampleScenario.node[3].veinsmobility 	maxSpeed 	13.999987879519
scalar RSUExampleScenario.node[3].veinsmobility 	totalDistance 	3409.3556556156
scalar RSUExampleScenario.node[3].veinsmobility 	totalCO2Emission 	692.50284944045
scalar RSUExampleScenario.node[4].veinsmobility 	startTime 	12.1
scalar RSUExampleScenario.node[4].veinsmobility 	totalTime 	266.8
scalar RSUExampleScenario.node[4].veinsmobility 	stopTime 	279
scalar RSUExampleScenario.node[4].veinsmobility 	minSpeed 	0.25434334872337
scalar RSUExampleScenario.node[4].veinsmobility 	maxSpeed 	13.999947069772
scalar RSUExampleScenario.node[4].veinsmobility 	totalDistance 	3409.2891950168
scalar RSUExampleScenario.node[4].veinsmobility 	totalCO2Emission 	693.95371042764
scalar RSUExampleScenario.node[5].veinsmobility 	startTime 	15.1
scalar RSUExampleScenario.node[5].veinsmobility 	totalTime 	266.9
scalar RSUExampleScenario.node[5].veinsmobility 	stopTime 	282.1
scalar RSUExampleScenario.node[5].veinsmobility 	minSpeed 	0.25693034635973
scalar RSUExampleScenario.node[5].veinsmobility 	maxSpeed 	13.999958666556
scalar RSUExampleScenario.node[5].veinsmobility 	totalDistance 	3413.7990148791
scalar RSUExampleScenario.node[5].veinsmobility 	totalCO2Emission 	691.02064752191
scalar RSUExampleScenario.node[6].veinsmobility 	startTime 	18.1
scalar RSUExampleScenario.node[6].veinsmobility 	totalTime 	266.9
scalar RSUExampleScenario.node[6].veinsmobility 	stopTime 	285.1
scalar RSUExampleScenario.node[6].veinsmobility 	minSpeed 	0.25590393834817
scalar RSUExampleScenario.node[6].veinsmobility 	maxSpeed 	13.99997009051
scalar RSUExampleScenario.node[6].veinsmobility 	totalDistance 	3409.5884231799
scalar RSUExampleScenario.node[6].veinsmobility 	totalCO2Emission 	691.25243123254
scalar RSUExampleScenario.node[7].veinsmobility 	startTime 	21.1
scalar RSUExampleScenario.node[7].veinsmobility 	totalTime 	267.1
scalar RSUExampleScenario.node[7].veinsmobility 	stopTime 	288.3
scalar RSUExampleScenario.node[7].veinsmobility 	minSpeed 	0.25630916404631
scalar RSUExampleScenario.node[7].veinsmobility 	maxSpeed 	13.999954963541
scalar RSUExampleScenario.node[7].veinsmobility 	totalDistance 	3414.0719523869
scalar RSUExampleScenario.node[7].veinsmobility 	totalCO2Emission 	696.54031625231
scalar RSUExampleScenario.node[8].veinsmobility 	startTime 	24.1
scalar RSUExampleScenario.node[8].veinsmobility 	totalTime 	267.1
scalar RSUExampleScenario.node[8].veinsmobility 	stopTime 	291.3
scalar RSUExampleScenario.node[8].veinsmobility 	minSpeed 	0.25950706143235
scalar RSUExampleScenario.node[8].veinsmobility 	maxSpeed 	13.999973015336
scalar RSUExampleScenario.node[8].veinsmobility 	totalDistance 	3409.448843654
scalar RSUExampleScenario.node[8].veinsmobility 	totalCO2Emission 	692.38116037724
scalar RSUExampleScenario.node[9].veinsmobility 	startTime 	27.1
scalar RSUExampleScenario.node[9].veinsmobility 	totalTime 	267.1
scalar RSUExampleScenario.node[9].veinsmobility 	stopTime 	294.3
scalar RSUExampleScenario.node[9].veinsmobility 	minSpeed 	0.25436662521749
scalar RSUExampleScenario.node[9].veinsmobility 	maxSpeed 	13.999955077742
scalar RSUExampleScenario.node[9].veinsmobility 	totalDistance 	3413.6812485114
scalar RSUExampleScenario.node[9].veinsmobility 	totalCO2Emission 	689.03690379932
scalar RSUExampleScenario.node[10].veinsmobility 	startTime 	30.1
scalar RSUExampleScenario.node[10].veinsmobility 	totalTime 	267.1
scalar RSUExampleScenario.node[10].veinsmobility 	stopTime 	297.3
scalar RSUExampleScenario.node[10].veinsmobility 	minSpeed 	0.25544643762964
scalar RSUExampleScenario.node[10].veinsmobility 	maxSpeed 	13.999999581454
scalar RSUExampleScenario.node[10].veinsmobility 	totalDistance 	3409.1987919652
scalar RSUExampleScenario.node[10].veinsmobility 	totalCO2Emission 	686.99721147526
scalar RSUExampleScenario.node[11].veinsmobility 	startTime 	33.1
scalar RSUExampleScenario.node[11].veinsmobility 	totalTime 	267.1
scalar RSUExampleScenario.node[11].veinsmobility 	stopTime 	300.3
scalar RSUExampleScenario.node[11].veinsmobility 	minSpeed 	0.25527139226836
scalar RSUExampleScenario.node[11].veinsmobility 	maxSpeed 	13.999767364273
scalar RSUExampleScenario.node[11].veinsmobility 	totalDistance 	3413.7127646027
scalar RSUExampleScenario.node[11].veinsmobility 	totalCO2Emission 	693.57345140454
scalar RSUExampleScenario.node[12].veinsmobility 	startTime 	36.1
scalar RSUExampleScenario.node[12].veinsmobility 	totalTime 	267.1
scalar RSUExampleScenario.node[12].veinsmobility 	stopTime 	303.3
scalar RSUExampleScenario.node[12].veinsmobility 	minSpeed 	0.25900952546066
scalar RSUExampleScenario.node[12].veinsmobility 	maxSpeed 	13.999997798821
scalar RSUExampleScenario.node[12].veinsmobility 	totalDistance 	3409.3570961181
scalar RSUExampleScenario.node[12].veinsmobility 	totalCO2Emission 	691.58203523562
scalar RSUExampleScenario.node[13].veinsmobility 	startTime 	39.1
scalar RSUExampleScenario.node[13].veinsmobility 	totalTime 	267.1
scalar RSUExampleScenario.node[13].veinsmobility 	stopTime 	306.3
scalar RSUExampleScenario.node[13].veinsmobility 	minSpeed 	0.2501279394736
scalar RSUExampleScenario.node[13].veinsmobility 	maxSpeed 	13.999985150618
scalar RSUExampleScenario.node[13].veinsmobility 	totalDistance 	3409.1708376786
scalar RSUExampleScenario.node[13].veinsmobility 	totalCO2Emission 	692.20514399086
scalar RSUExampleScenario.node[14].veinsmobility 	startTime 	42.1
scalar RSUExampleScenario.node[14].veinsmobility 	totalTime 	267.1
scalar RSUExampleScenario.node[14].veinsmobility 	stopTime 	309.3
scalar RSUExampleScenario.node[14].veinsmobility 	minSpeed 	0.25347786434251
scalar RSUExampleScenario.node[14].veinsmobility 	maxSpeed 	13.999973939327
scalar RSUExampleScenario.node[14].veinsmobility 	totalDistance 	3413.551926756
scalar RSUExampleScenario.node[14].veinsmobility 	totalCO2Emission 	688.9790552831
scalar RSUExampleScenario.node[15].veinsmobility 	startTime 	45.1
scalar RSUExampleScenario.node[15].veinsmobility 	totalTime 	267.1
scalar RSUExampleScenario.node[15].veinsmobility 	stopTime 	312.3
scalar RSUExampleScenario.node[15].veinsmobility 	minSpeed 	0.25836899208068
scalar RSUExampleScenario.node[15].veinsmobility 	maxSpeed 	13.999906481768
scalar RSUExampleScenario.node[15].veinsmobility 	totalDistance 	3409.4072209789
scalar RSUExampleScenario.node[15].veinsmobility 	totalCO2Emission 	692.96649918693
scalar RSUExampleScenario.node[16].veinsmobility 	startTime 	48.1
scalar RSUExampleScenario.node[16].veinsmobility 	totalTime 	267.1
scalar RSUExampleScenario.node[16].veinsmobility 	stopTime 	315.3
scalar RSUExampleScenario.node[16].veinsmobility 	minSpeed 	0.25964028776041
scalar RSUExampleScenario.node[16].veinsmobility 	maxSpeed 	13.999963116252
scalar RSUExampleScenario.node[16].veinsmobility 	totalDistance 	3409.7317777504
scalar RSUExampleScenario.node[16].veinsmobility 	totalCO2Emission 	693.44165246685
scalar RSUExampleScenario.node[17].veinsmobility 	startTime 	51.1
scalar RSUExampleScenario.node[17].veinsmobility 	totalTime 	267.1
scalar RSUExampleScenario.node[17].veinsmobility 	stopTime 	318.3
scalar RSUExampleScenario.node[17].veinsmobility 	minSpeed 	0.25809155813046
scalar RSUExampleScenario.node[17].veinsmobility 	maxSpeed 	13.999904114176
scalar RSUExampleScenario.node[17].veinsmobility 	totalDistance 	3413.9325301765
scalar RSUExampleScenario.node[17].veinsmobility 	totalCO2Emission 	691.52246302686
scalar RSUExampleScenario.node[18].veinsmobility 	startTime 	54.1
scalar RSUExampleScenario.node[18].veinsmobility 	totalTime 	267.1
scalar RSUExampleScenario.node[18].veinsmobility 	stopTime 	321.3
scalar RSUExampleScenario.node[18].veinsmobility 	minSpeed 	0.25733203441766
scalar RSUExampleScenario.node[18].veinsmobility 	maxSpeed 	13.999987110288
scalar RSUExampleScenario.node[18].veinsmobility 	totalDistance 	3409.6179190516
scalar RSUExampleScenario.node[18].veinsmobility 	totalCO2Emission 	691.30797909972
scalar RSUExampleScenario.node[19].veinsmobility 	startTime 	57.1
scalar RSUExampleScenario.node[19].veinsmobility 	totalTime 	267.1
scalar RSUExampleScenario.node[19].veinsmobility 	stopTime 	324.3
scalar RSUExampleScenario.node[19].veinsmobility 	minSpeed 	0.25440078960778
scalar RSUExampleScenario.node[19].veinsmobility 	maxSpeed 	13.999954348193
scalar RSUExampleScenario.node[19].veinsmobility 	totalDistance 	3413.5067856065
scalar RSUExampleScenario.node[19].veinsmobility 	totalCO2Emission 	690.73088570827
scalar RSUExampleScenario.node[20].veinsmobility 	startTime 	60.1
scalar RSUExampleScenario.node[20].veinsmobility 	totalTime 	267.1
scalar RSUExampleScenario.node[20].veinsmobility 	stopTime 	327.3
scalar RSUExampleScenario.node[20].veinsmobility 	minSpeed 	0.24898703528009
scalar RSUExampleScenario.node[20].veinsmobility 	maxSpeed 	13.999985653611
scalar RSUExampleScenario.node[20].veinsmobility 	totalDistance 	3409.4973618462
scalar RSUExampleScenario.node[20].veinsmobility 	totalCO2Emission 	687.10569037207
scalar RSUExampleScenario.node[21].veinsmobility 	startTime 	63.1
scalar RSUExampleScenario.node[21].veinsmobility 	totalTime 	267.1
scalar RSUExampleScenario.node[21].veinsmobility 	stopTime 	330.3
scalar RSUExampleScenario.node[21].veinsmobility 	minSpeed 	0.25627727058111
scalar RSUExampleScenario.node[21].veinsmobility 	maxSpeed 	13.999958657688
scalar RSUExampleScenario.node[21].veinsmobility 	totalDistance 	3413.414407543
scalar RSUExampleScenario.node[21].veinsmobility 	totalCO2Emission 	690.48363616117
scalar RSUExampleScenario.node[22].veinsmobility 	startTime 	66.1
scalar RSUExampleScenario.node[22].veinsmobility 	totalTime 	267.2
scalar RSUExampleScenario.node[22].veinsmobility 	stopTime 	333.4
scalar RSUExampleScenario.node[22].veinsmobility 	minSpeed 	0.25498662819341
scalar RSUExampleScenario.node[22].veinsmobility 	maxSpeed 	13.999920538249
scalar RSUExampleScenario.node[22].veinsmobility 	totalDistance 	3409.5765518175
scalar RSUExampleScenario.node[22].veinsmobility 	totalCO2Emission 	692.21753308981
scalar RSUExampleScenario.node[23].veinsmobility 	startTime 	69.1
scalar RSUExampleScenario.node[23].veinsmobility 	totalTime 	267.2
scalar RSUExampleScenario.node[23].veinsmobility 	stopTime 	336.4
scalar RSUExampleScenario.node[23].veinsmobility 	minSpeed 	0.24906669214414
scalar RSUExampleScenario.node[23].veinsmobility 	maxSpeed 	13.999944152029
scalar RSUExampleScenario.node[23].veinsmobility 	totalDistance 	3413.763697226
scalar RSUExampleScenario.node[23].veinsmobility 	totalCO2Emission 	692.68276182867
scalar RSUExampleScenario.node[24].veinsmobility 	startTime 	72.1
scalar RSUExampleScenario.node[24].veinsmobility 	totalTime 	267.2
scalar RSUExampleScenario.node[24].veinsmobility 	stopTime 	339.4
scalar RSUExampleScenario.node[24].veinsmobility 	minSpeed 	0.25538616357115
scalar RSUExampleScenario.node[24].veinsmobility 	maxSpeed 	13.99996702851
scalar RSUExampleScenario.node[24].veinsmobility 	totalDistance 	3409.3366814903
scalar RSUExampleScenario.node[24].veinsmobility 	totalCO2Emission 	689.46667475729
scalar RSUExampleScenario.node[25].veinsmobility 	startTime 	75.1
scalar RSUExampleScenario.node[25].veinsmobility 	totalTime 	267.2
scalar RSUExampleScenario.node[25].veinsmobility 	stopTime 	342.4
scalar RSUExampleScenario.node[25].veinsmobility 	minSpeed 	0.24976967593539
scalar RSUExampleScenario.node[25].veinsmobility 	maxSpeed 	13.999955252782
scalar RSUExampleScenario.node[25].veinsmobility 	totalDistance 	3409.6949782654
scalar RSUExampleScenario.node[25].veinsmobility 	totalCO2Emission 	692.27765159415
scalar RSUExampleScenario.node[26].veinsmobility 	startTime 	78.1
scalar RSUExampleScenario.node[26].veinsmobility 	totalTime 	267.2
scalar RSUExampleScenario.node[26].veinsmobility 	stopTime 	345.4
scalar RSUExampleScenario.node[26].veinsmobility 	minSpeed 	0.25607137921755
scalar RSUExampleScenario.node[26].veinsmobility 	maxSpeed 	13.999948753065
scalar RSUExampleScenario.node[26].veinsmobility 	totalDistance 	3413.5195273605
scalar RSUExampleScenario.node[26].veinsmobility 	totalCO2Emission 	690.68860083312
scalar RSUExampleScenario.node[27].veinsmobility 	startTime 	81.1
scalar RSUExampleScenario.node[27].veinsmobility 	totalTime 	267.2
scalar RSUExampleScenario.node[27].veinsmobility 	stopTime 	348.4
scalar RSUExampleScenario.node[27].veinsmobility 	minSpeed 	0.25218440115126
scalar RSUExampleScenario.node[27].veinsmobility 	maxSpeed 	13.999984784587
scalar RSUExampleScenario.node[27].veinsmobility 	totalDistance 	3409.4453154906
scalar RSUExampleScenario.node[27].veinsmobility 	totalCO2Emission 	692.52368061677
scalar RSUExampleScenario.node[28].veinsmobility 	startTime 	84.1
scalar RSUExampleScenario.node[28].veinsmobility 	totalTime 	267.2
scalar RSUExampleScenario.node[28].veinsmobility 	stopTime 	351.4
scalar RSUExampleScenario.node[28].veinsmobility 	minSpeed 	0.25906930786418
scalar RSUExampleScenario.node[28].veinsmobility 	maxSpeed 	13.999794867609
scalar RSUExampleScenario.node[28].veinsmobility 	totalDistance 	3413.8198521662
scalar RSUExampleScenario.node[28].veinsmobility 	totalCO2Emission 	691.68157728247
scalar RSUExampleScenario.node[29].veinsmobility 	startTime 	87.1
scalar RSUExampleScenario.node[29].veinsmobility 	totalTime 	267.2
scalar RSUExampleScenario.node[29].veinsmobility 	stopTime 	354.4
scalar RSUExampleScenario.node[29].veinsmobility 	minSpeed 	0.25445873460243
scalar RSUExampleScenario.node[29].veinsmobility 	maxSpeed 	13.99986572732
scalar RSUExampleScenario.node[29].veinsmobility 	totalDistance 	3409.7186332396
scalar RSUExampleScenario.node[29].veinsmobility 	totalCO2Emission 	692.5938314074
scalar RSUExampleScenario.node[30].veinsmobility 	startTime 	90.1
scalar RSUExampleScenario.node[30].veinsmobility 	totalTime 	267.2
scalar RSUExampleScenario.node[30].veinsmobility 	stopTime 	357.4
scalar RSUExampleScenario.node[30].veinsmobility 	minSpeed 	0.25381618150044
scalar RSUExampleScenario.node[30].veinsmobility 	maxSpeed 	13.999912028285
scalar RSUExampleScenario.node[30].veinsmobility 	totalDistance 	3414.2254500088
scalar RSUExampleScenario.node[30].veinsmobility 	totalCO2Emission 	693.05393232838
scalar RSUExampleScenario.node[31].veinsmobility 	startTime 	93.1
scalar RSUExampleScenario.node[31].veinsmobility 	totalTime 	267.2
scalar RSUExampleScenario.node[31].veinsmobility 	stopTime 	360.4
scalar RSUExampleScenario.node[31].veinsmobility 	minSpeed 	0.25004620088055
scalar RSUExampleScenario.node[31].veinsmobility 	maxSpeed 	13.999980752862
scalar RSUExampleScenario.node[31].veinsmobility 	totalDistance 	3409.2732824009
scalar RSUExampleScenario.node[31].veinsmobility 	totalCO2Emission 	689.23073224504
scalar RSUExampleScenario.node[32].veinsmobility 	startTime 	96.1
scalar RSUExampleScenario.node[32].veinsmobility 	totalTime 	267.2
scalar RSUExampleScenario.node[32].veinsmobility 	stopTime 	363.4
scalar RSUExampleScenario.node[32].veinsmobility 	minSpeed 	0.24879364404292
scalar RSUExampleScenario.node[32].veinsmobility 	maxSpeed 	13.99975017451
scalar RSUExampleScenario.node[32].veinsmobility 	totalDistance 	3413.4910912776
scalar RSUExampleScenario.node[32].veinsmobility 	totalCO2Emission 	694.93656386791
scalar RSUExampleScenario.node[33].veinsmobility 	startTime 	99.1
scalar RSUExampleScenario.node[33].veinsmobility 	totalTime 	267.2
scalar RSUExampleScenario.node[33].veinsmobility 	stopTime 	366.4
scalar RSUExampleScenario.node[33].veinsmobility 	minSpeed 	0.25124861953873
scalar RSUExampleScenario.node[33].veinsmobility 	maxSpeed 	13.999897789438
scalar RSUExampleScenario.node[33].veinsmobility 	totalDistance 	3409.2821066208
scalar RSUExampleScenario.node[33].veinsmobility 	totalCO2Emission 	690.85959423425
scalar RSUExampleScenario.node[34].veinsmobility 	startTime 	102.1
scalar RSUExampleScenario.node[34].veinsmobility 	totalTime 	267.2
scalar RSUExampleScenario.node[34].veinsmobility 	stopTime 	369.4
scalar RSUExampleScenario.node[34].veinsmobility 	minSpeed 	0.25627013293351
scalar RSUExampleScenario.node[34].veinsmobility 	maxSpeed 	13.999716535611
scalar RSUExampleScenario.node[34].veinsmobility 	totalDistance 	3413.5362301781
scalar RSUExampleScenario.node[34].veinsmobility 	totalCO2Emission 	690.67639440461
scalar RSUExampleScenario.node[35].veinsmobility 	startTime 	105.1
scalar RSUExampleScenario.node[35].veinsmobility 	totalTime 	267.2
scalar RSUExampleScenario.node[35].veinsmobility 	stopTime 	372.4
scalar RSUExampleScenario.node[35].veinsmobility 	minSpeed 	0.25585904483241
scalar RSUExampleScenario.node[35].veinsmobility 	maxSpeed 	13.999882897499
scalar RSUExampleScenario.node[35].veinsmobility 	totalDistance 	3409.4704284294
scalar RSUExampleScenario.node[35].veinsmobility 	totalCO2Emission 	686.35672626017
scalar RSUExampleScenario.node[36].veinsmobility 	startTime 	108.1
scalar RSUExampleScenario.node[36].veinsmobility 	totalTime 	267.2
scalar RSUExampleScenario.node[36].veinsmobility 	stopTime 	375.4
scalar RSUExampleScenario.node[36].veinsmobility 	minSpeed 	0.25594932730845
scalar RSUExampleScenario.node[36].veinsmobility 	maxSpeed 	13.999835591849
scalar RSUExampleScenario.node[36].veinsmobility 	totalDistance 	3413.7480323724
scalar RSUExampleScenario.node[36].veinsmobility 	totalCO2Emission 	686.97198540466
scalar RSUExampleScenario.node[37].veinsmobility 	startTime 	111.1
scalar RSUExampleScenario.node[37].veinsmobility 	totalTime 	267.3
scalar RSUExampleScenario.node[37].veinsmobility 	stopTime 	378.5
scalar RSUExampleScenario.node[37].veinsmobility 	minSpeed 	0.25307900809962
scalar RSUExampleScenario.node[37].veinsmobility 	maxSpeed 	13.999990815422
scalar RSUExampleScenario.node[37].veinsmobility 	totalDistance 	3410.0352862825
scalar RSUExampleScenario.node[37].veinsmobility 	totalCO2Emission 	687.61642474594
scalar RSUExampleScenario.node[38].veinsmobility 	startTime 	114.1
scalar RSUExampleScenario.node[38].veinsmobility 	totalTime 	267.4
scalar RSUExampleScenario.node[38].veinsmobility 	stopTime 	381.6
scalar RSUExampleScenario.node[38].veinsmobility 	minSpeed 	0.25628288324899
scalar RSUExampleScenario.node[38].veinsmobility 	maxSpeed 	13.999941360322
scalar RSUExampleScenario.node[38].veinsmobility 	totalDistance 	3414.2692829007
scalar RSUExampleScenario.node[38].veinsmobility 	totalCO2Emission 	690.98237726374
scalar RSUExampleScenario.node[39].veinsmobility 	startTime 	117.1
scalar RSUExampleScenario.node[39].veinsmobility 	totalTime 	267.5
scalar RSUExampleScenario.node[39].veinsmobility 	stopTime 	384.7
scalar RSUExampleScenario.node[39].veinsmobility 	minSpeed 	0.2473463809907
scalar RSUExampleScenario.node[39].veinsmobility 	maxSpeed 	13.999983503646
scalar RSUExampleScenario.node[39].veinsmobility 	totalDistance 	3409.6322992913
scalar RSUExampleScenario.node[39].veinsmobility 	totalCO2Emission 	692.84669330796
scalar RSUExampleScenario.node[40].veinsmobility 	startTime 	120.1
scalar RSUExampleScenario.node[40].veinsmobility 	totalTime 	267.6
scalar RSUExampleScenario.node[40].veinsmobility 	stopTime 	387.8
scalar RSUExampleScenario.node[40].veinsmobility 	minSpeed 	0.25281526318705
scalar RSUExampleScenario.node[40].veinsmobility 	maxSpeed 	13.999962366666
scalar RSUExampleScenario.node[40].veinsmobility 	totalDistance 	3413.6507154977
scalar RSUExampleScenario.node[40].veinsmobility 	totalCO2Emission 	693.99681763072
scalar RSUExampleScenario.node[41].veinsmobility 	startTime 	123.1
scalar RSUExampleScenario.node[41].veinsmobility 	totalTime 	267.7
scalar RSUExampleScenario.node[41].veinsmobility 	stopTime 	390.9
scalar RSUExampleScenario.node[41].veinsmobility 	minSpeed 	0.24788088177075
scalar RSUExampleScenario.node[41].veinsmobility 	maxSpeed 	13.999978791254
scalar RSUExampleScenario.node[41].veinsmobility 	totalDistance 	3409.7543213107
scalar RSUExampleScenario.node[41].veinsmobility 	totalCO2Emission 	689.14405831162
scalar RSUExampleScenario.node[42].veinsmobility 	startTime 	126.1
scalar RSUExampleScenario.node[42].veinsmobility 	totalTime 	267.9
scalar RSUExampleScenario.node[42].veinsmobility 	stopTime 	394.1
scalar RSUExampleScenario.node[42].veinsmobility 	minSpeed 	0.25835078550107
scalar RSUExampleScenario.node[42].veinsmobility 	maxSpeed 	13.999989950182
scalar RSUExampleScenario.node[42].veinsmobility 	totalDistance 	3414.2238754915
scalar RSUExampleScenario.node[42].veinsmobility 	totalCO2Emission 	691.60444613784
scalar RSUExampleScenario.node[43].veinsmobility 	startTime 	129.1
scalar RSUExampleScenario.node[43].veinsmobility 	totalTime 	268.1
scalar RSUExampleScenario.node[43].veinsmobility 	stopTime 	397.3
scalar RSUExampleScenario.node[43].veinsmobility 	minSpeed 	0.25491906212061
scalar RSUExampleScenario.node[43].veinsmobility 	maxSpeed 	13.999936723206
scalar RSUExampleScenario.node[43].veinsmobility 	totalDistance 	3410.0254438364
scalar RSUExampleScenario.node[43].veinsmobility 	totalCO2Emission 	691.7747569495
scalar RSUExampleScenario.node[44].veinsmobility 	startTime 	132.1
scalar RSUExampleScenario.node[44].veinsmobility 	totalTime 	268.3
scalar RSUExampleScenario.node[44].veinsmobility 	stopTime 	400.5
scalar RSUExampleScenario.node[44].veinsmobility 	minSpeed 	0.25604346213304
scalar RSUExampleScenario.node[44].veinsmobility 	maxSpeed 	13.999963453135
scalar RSUExampleScenario.node[44].veinsmobility 	totalDistance 	3413.9012859121
scalar RSUExampleScenario.node[44].veinsmobility 	totalCO2Emission 	693.18985073324
scalar RSUExampleScenario.node[45].veinsmobility 	startTime 	135.1
scalar RSUExampleScenario.node[45].veinsmobility 	totalTime 	268.6
scalar RSUExampleScenario.node[45].veinsmobility 	stopTime 	403.8
scalar RSUExampleScenario.node[45].veinsmobility 	minSpeed 	0.24981649933173
scalar RSUExampleScenario.node[45].veinsmobility 	maxSpeed 	13.999890250501
scalar RSUExampleScenario.node[45].veinsmobility 	totalDistance 	3409.9783488649
scalar RSUExampleScenario.node[45].veinsmobility 	totalCO2Emission 	689.4176546494
scalar RSUExampleScenario.node[46].veinsmobility 	startTime 	138.1
scalar RSUExampleScenario.node[46].veinsmobility 	totalTime 	268.9
scalar RSUExampleScenario.node[46].veinsmobility 	stopTime 	407.1
scalar RSUExampleScenario.node[46].veinsmobility 	minSpeed 	0.25563727184571
scalar RSUExampleScenario.node[46].veinsmobility 	maxSpeed 	13.999876902199
scalar RSUExampleScenario.node[46].veinsmobility 	totalDistance 	3413.5810136501
scalar RSUExampleScenario.node[46].veinsmobility 	totalCO2Emission 	690.47122622017
scalar RSUExampleScenario.node[47].veinsmobility 	startTime 	141.1
scalar RSUExampleScenario.node[47].veinsmobility 	totalTime 	269.3
scalar RSUExampleScenario.node[47].veinsmobility 	stopTime 	410.5
scalar RSUExampleScenario.node[47].veinsmobility 	minSpeed 	0.25935332734371
scalar RSUExampleScenario.node[47].veinsmobility 	maxSpeed 	13.999971594678
scalar RSUExampleScenario.node[47].veinsmobility 	totalDistance 	3410.0541839839
scalar RSUExampleScenario.node[47].veinsmobility 	totalCO2Emission 	690.3162146751
scalar RSUExampleScenario.node[48].veinsmobility 	startTime 	144.1
scalar RSUExampleScenario.node[48].veinsmobility 	totalTime 	269.8
scalar RSUExampleScenario.node[48].veinsmobility 	stopTime 	414
scalar RSUExampleScenario.node[48].veinsmobility 	minSpeed 	0.25051651322539
scalar RSUExampleScenario.node[48].veinsmobility 	maxSpeed 	13.999919160118
scalar RSUExampleScenario.node[48].veinsmobility 	totalDistance 	3413.758795494
scalar RSUExampleScenario.node[48].veinsmobility 	totalCO2Emission 	690.02898673898
scalar RSUExampleScenario.node[49].veinsmobility 	startTime 	147.1
scalar RSUExampleScenario.node[49].veinsmobility 	totalTime 	270.4
scalar RSUExampleScenario.node[49].veinsmobility 	stopTime 	417.6
scalar RSUExampleScenario.node[49].veinsmobility 	minSpeed 	0.2598301535584
scalar RSUExampleScenario.node[49].veinsmobility 	maxSpeed 	13.999996910396
scalar RSUExampleScenario.node[49].veinsmobility 	totalDistance 	3410.0957034724
scalar RSUExampleScenario.node[49].veinsmobility 	totalCO2Emission 	694.66925296344
scalar RSUExampleScenario.node[50].veinsmobility 	startTime 	150.1
scalar RSUExampleScenario.node[50].veinsmobility 	totalTime 	271
scalar RSUExampleScenario.node[50].veinsmobility 	stopTime 	421.2
scalar RSUExampleScenario.node[50].veinsmobility 	minSpeed 	0.25727077869279
scalar RSUExampleScenario.node[50].veinsmobility 	maxSpeed 	13.999932239428
scalar RSUExampleScenario.node[50].veinsmobility 	totalDistance 	3409.9267392626
scalar RSUExampleScenario.node[50].veinsmobility 	totalCO2Emission 	694.91622405951
scalar RSUExampleScenario.node[51].veinsmobility 	startTime 	153.1
scalar RSUExampleScenario.node[51].veinsmobility 	totalTime 	271.6
scalar RSUExampleScenario.node[51].veinsmobility 	stopTime 	424.8
scalar RSUExampleScenario.node[51].veinsmobility 	minSpeed 	0.2587224014909
scalar RSUExampleScenario.node[51].veinsmobility 	maxSpeed 	13.999630885359
scalar RSUExampleScenario.node[51].veinsmobility 	totalDistance 	3413.6950872574
scalar RSUExampleScenario.node[51].veinsmobility 	totalCO2Emission 	695.23773886324
scalar RSUExampleScenario.node[52].veinsmobility 	startTime 	156.1
scalar RSUExampleScenario.node[52].veinsmobility 	totalTime 	272.2
scalar RSUExampleScenario.node[52].veinsmobility 	stopTime 	428.4
scalar RSUExampleScenario.node[52].veinsmobility 	minSpeed 	0.25637318806583
scalar RSUExampleScenario.node[52].veinsmobility 	maxSpeed 	13.999976784608
scalar RSUExampleScenario.node[52].veinsmobility 	totalDistance 	3409.8523319693
scalar RSUExampleScenario.node[52].veinsmobility 	totalCO2Emission 	694.57053508389
scalar RSUExampleScenario.node[53].veinsmobility 	startTime 	159.1
scalar RSUExampleScenario.node[53].veinsmobility 	totalTime 	272.9
scalar RSUExampleScenario.node[53].veinsmobility 	stopTime 	432.1
scalar RSUExampleScenario.node[53].veinsmobility 	minSpeed 	0.25089359776815
scalar RSUExampleScenario.node[53].veinsmobility 	maxSpeed 	13.999938815844
scalar RSUExampleScenario.node[53].veinsmobility 	totalDistance 	3409.6155822364
scalar RSUExampleScenario.node[53].veinsmobility 	totalCO2Emission 	695.40280336761
scalar RSUExampleScenario.node[54].veinsmobility 	startTime 	162.1
scalar RSUExampleScenario.node[54].veinsmobility 	totalTime 	273.7
scalar RSUExampleScenario.node[54].veinsmobility 	stopTime 	435.9
scalar RSUExampleScenario.node[54].veinsmobility 	minSpeed 	0.25098073194409
scalar RSUExampleScenario.node[54].veinsmobility 	maxSpeed 	13.999994352055
scalar RSUExampleScenario.node[54].veinsmobility 	totalDistance 	3414.342324189
scalar RSUExampleScenario.node[54].veinsmobility 	totalCO2Emission 	693.66599917899
scalar RSUExampleScenario.node[55].veinsmobility 	startTime 	165.1
scalar RSUExampleScenario.node[55].veinsmobility 	totalTime 	274.4
scalar RSUExampleScenario.node[55].veinsmobility 	stopTime 	439.6
scalar RSUExampleScenario.node[55].veinsmobility 	minSpeed 	0.24834084537998
scalar RSUExampleScenario.node[55].veinsmobility 	maxSpeed 	13.999784031792
scalar RSUExampleScenario.node[55].veinsmobility 	totalDistance 	3409.7041630047
scalar RSUExampleScenario.node[55].veinsmobility 	totalCO2Emission 	695.87401922878
scalar RSUExampleScenario.node[56].veinsmobility 	startTime 	168.1
scalar RSUExampleScenario.node[56].veinsmobility 	totalTime 	275.1
scalar RSUExampleScenario.node[56].veinsmobility 	stopTime 	443.3
scalar RSUExampleScenario.node[56].veinsmobility 	minSpeed 	0.25285121927247
scalar RSUExampleScenario.node[56].veinsmobility 	maxSpeed 	13.999974978124
scalar RSUExampleScenario.node[56].veinsmobility 	totalDistance 	3409.872198295
scalar RSUExampleScenario.node[56].veinsmobility 	totalCO2Emission 	696.79204664038
scalar RSUExampleScenario.node[57].veinsmobility 	startTime 	171.1
scalar RSUExampleScenario.node[57].veinsmobility 	totalTime 	275.8
scalar RSUExampleScenario.node[57].veinsmobility 	stopTime 	447
scalar RSUExampleScenario.node[57].veinsmobility 	minSpeed 	0.25703048918233
scalar RSUExampleScenario.node[57].veinsmobility 	maxSpeed 	13.999982771403
scalar RSUExampleScenario.node[57].veinsmobility 	totalDistance 	3413.8874273217
scalar RSUExampleScenario.node[57].veinsmobility 	totalCO2Emission 	698.04304990347
scalar RSUExampleScenario.node[58].veinsmobility 	startTime 	174.1
scalar RSUExampleScenario.node[58].veinsmobility 	totalTime 	276.5
scalar RSUExampleScenario.node[58].veinsmobility 	stopTime 	450.7
scalar RSUExampleScenario.node[58].veinsmobility 	minSpeed 	0.251068187678
scalar RSUExampleScenario.node[58].veinsmobility 	maxSpeed 	13.999907289802
scalar RSUExampleScenario.node[58].veinsmobility 	totalDistance 	3409.9365165899
scalar RSUExampleScenario.node[58].veinsmobility 	totalCO2Emission 	696.29037417714
scalar RSUExampleScenario.node[59].veinsmobility 	startTime 	177.1
scalar RSUExampleScenario.node[59].veinsmobility 	totalTime 	277.1
scalar RSUExampleScenario.node[59].veinsmobility 	stopTime 	454.3
scalar RSUExampleScenario.node[59].veinsmobility 	minSpeed 	0.25373538837326
scalar RSUExampleScenario.node[59].veinsmobility 	maxSpeed 	13.999920364632
scalar RSUExampleScenario.node[59].veinsmobility 	totalDistance 	3413.4409940196
scalar RSUExampleScenario.node[59].veinsmobility 	totalCO2Emission 	698.71260817416
scalar RSUExampleScenario.node[60].veinsmobility 	startTime 	180.1
scalar RSUExampleScenario.node[60].veinsmobility 	totalTime 	277.7
scalar RSUExampleScenario.node[60].veinsmobility 	stopTime 	457.9
scalar RSUExampleScenario.node[60].veinsmobility 	minSpeed 	0.25961836003186
scalar RSUExampleScenario.node[60].veinsmobility 	maxSpeed 	13.99991601706
scalar RSUExampleScenario.node[60].veinsmobility 	totalDistance 	3409.4548694279
scalar RSUExampleScenario.node[60].veinsmobility 	totalCO2Emission 	700.19447068431
scalar RSUExampleScenario.node[61].veinsmobility 	startTime 	183.1
scalar RSUExampleScenario.node[61].veinsmobility 	totalTime 	278.3
scalar RSUExampleScenario.node[61].veinsmobility 	stopTime 	461.5
scalar RSUExampleScenario.node[61].veinsmobility 	minSpeed 	0.25129007243225
scalar RSUExampleScenario.node[61].veinsmobility 	maxSpeed 	13.999913416072
scalar RSUExampleScenario.node[61].veinsmobility 	totalDistance 	3413.56218891
scalar RSUExampleScenario.node[61].veinsmobility 	totalCO2Emission 	701.62253520383
scalar RSUExampleScenario.node[62].veinsmobility 	startTime 	186.1
scalar RSUExampleScenario.node[62].veinsmobility 	totalTime 	279
scalar RSUExampleScenario.node[62].veinsmobility 	stopTime 	465.2
scalar RSUExampleScenario.node[62].veinsmobility 	minSpeed 	0.25684058796475
scalar RSUExampleScenario.node[62].veinsmobility 	maxSpeed 	13.999978100478
scalar RSUExampleScenario.node[62].veinsmobility 	totalDistance 	3409.9112916841
scalar RSUExampleScenario.node[62].veinsmobility 	totalCO2Emission 	698.62801729675
scalar RSUExampleScenario.node[63].veinsmobility 	startTime 	189.1
scalar RSUExampleScenario.node[63].veinsmobility 	totalTime 	279.7
scalar RSUExampleScenario.node[63].veinsmobility 	stopTime 	468.9
scalar RSUExampleScenario.node[63].veinsmobility 	minSpeed 	0.25739295747015
scalar RSUExampleScenario.node[63].veinsmobility 	maxSpeed 	13.99995390171
scalar RSUExampleScenario.node[63].veinsmobility 	totalDistance 	3413.7434918896
scalar RSUExampleScenario.node[63].veinsmobility 	totalCO2Emission 	701.12906064343
scalar RSUExampleScenario.node[64].veinsmobility 	startTime 	192.1
scalar RSUExampleScenario.node[64].veinsmobility 	totalTime 	280.4
scalar RSUExampleScenario.node[64].veinsmobility 	stopTime 	472.6
scalar RSUExampleScenario.node[64].veinsmobility 	minSpeed 	0.25609108708007
scalar RSUExampleScenario.node[64].veinsmobility 	maxSpeed 	13.999922025467
scalar RSUExampleScenario.node[64].veinsmobility 	totalDistance 	3409.5279321843
scalar RSUExampleScenario.node[64].veinsmobility 	totalCO2Emission 	698.72803829291
scalar RSUExampleScenario.node[65].veinsmobility 	startTime 	195.1
scalar RSUExampleScenario.node[65].veinsmobility 	totalTime 	281
scalar RSUExampleScenario.node[65].veinsmobility 	stopTime 	476.2
scalar RSUExampleScenario.node[65].veinsmobility 	minSpeed 	0.25516531111253
scalar RSUExampleScenario.node[65].veinsmobility 	maxSpeed 	13.999951436927
scalar RSUExampleScenario.node[65].veinsmobility 	totalDistance 	3409.4268053991
scalar RSUExampleScenario.node[65].veinsmobility 	totalCO2Emission 	702.75965639186
scalar RSUExampleScenario.node[66].veinsmobility 	startTime 	198.1
scalar RSUExampleScenario.node[66].veinsmobility 	totalTime 	281.6
scalar RSUExampleScenario.node[66].veinsmobility 	stopTime 	479.8
scalar RSUExampleScenario.node[66].veinsmobility 	minSpeed 	0.25935686282883
scalar RSUExampleScenario.node[66].veinsmobility 	maxSpeed 	13.999920467907
scalar RSUExampleScenario.node[66].veinsmobility 	totalDistance 	3413.8668630196
scalar RSUExampleScenario.node[66].veinsmobility 	totalCO2Emission 	702.63641480027
scalar RSUExampleScenario.node[67].veinsmobility 	startTime 	201.1
scalar RSUExampleScenario.node[67].veinsmobility 	totalTime 	282.2
scalar RSUExampleScenario.node[67].veinsmobility 	stopTime 	483.4
scalar RSUExampleScenario.node[67].veinsmobility 	minSpeed 	0.25119075279287
scalar RSUExampleScenario.node[67].veinsmobility 	maxSpeed 	13.999903106615
scalar RSUExampleScenario.node[67].veinsmobility 	totalDistance 	3409.7022470177
scalar RSUExampleScenario.node[67].veinsmobility 	totalCO2Emission 	699.8358555582
scalar RSUExampleScenario.node[68].veinsmobility 	startTime 	204.1
scalar RSUExampleScenario.node[68].veinsmobility 	totalTime 	282.8
scalar RSUExampleScenario.node[68].veinsmobility 	stopTime 	487
scalar RSUExampleScenario.node[68].veinsmobility 	minSpeed 	0.25713870944316
scalar RSUExampleScenario.node[68].veinsmobility 	maxSpeed 	13.999985157247
scalar RSUExampleScenario.node[68].veinsmobility 	totalDistance 	3413.615164122
scalar RSUExampleScenario.node[68].veinsmobility 	totalCO2Emission 	705.30054932008
scalar RSUExampleScenario.node[69].veinsmobility 	startTime 	207.1
scalar RSUExampleScenario.node[69].veinsmobility 	totalTime 	283.4
scalar RSUExampleScenario.node[69].veinsmobility 	stopTime 	490.6
scalar RSUExampleScenario.node[69].veinsmobility 	minSpeed 	0.25410623743595
scalar RSUExampleScenario.node[69].veinsmobility 	maxSpeed 	13.999978632377
scalar RSUExampleScenario.node[69].veinsmobility 	totalDistance 	3409.5882658375
scalar RSUExampleScenario.node[69].veinsmobility 	totalCO2Emission 	704.85377411901
scalar RSUExampleScenario.node[70].veinsmobility 	startTime 	210.1
scalar RSUExampleScenario.node[70].veinsmobility 	totalTime 	284
scalar RSUExampleScenario.node[70].veinsmobility 	stopTime 	494.2
scalar RSUExampleScenario.node[70].veinsmobility 	minSpeed 	0.25710090843937
scalar RSUExampleScenario.node[70].veinsmobility 	maxSpeed 	13.999997817709
scalar RSUExampleScenario.node[70].veinsmobility 	totalDistance 	3413.7066664766
scalar RSUExampleScenario.node[70].veinsmobility 	totalCO2Emission 	703.67336138992
scalar RSUExampleScenario.node[71].veinsmobility 	startTime 	213.1
scalar RSUExampleScenario.node[71].veinsmobility 	totalTime 	284.7
scalar RSUExampleScenario.node[71].veinsmobility 	stopTime 	497.9
scalar RSUExampleScenario.node[71].veinsmobility 	minSpeed 	0.25799948997051
scalar RSUExampleScenario.node[71].veinsmobility 	maxSpeed 	13.999940714887
scalar RSUExampleScenario.node[71].veinsmobility 	totalDistance 	3409.8551347077
scalar RSUExampleScenario.node[71].veinsmobility 	totalCO2Emission 	707.69615744229
scalar RSUExampleScenario.node[72].veinsmobility 	startTime 	216.1
scalar RSUExampleScenario.node[72].veinsmobility 	totalTime 	285.4
scalar RSUExampleScenario.node[72].veinsmobility 	stopTime 	501.6
scalar RSUExampleScenario.node[72].veinsmobility 	minSpeed 	0.25474916118151
scalar RSUExampleScenario.node[72].veinsmobility 	maxSpeed 	13.9999502253
scalar RSUExampleScenario.node[72].veinsmobility 	totalDistance 	3413.9780722004
scalar RSUExampleScenario.node[72].veinsmobility 	totalCO2Emission 	704.41433266971
scalar RSUExampleScenario.node[73].veinsmobility 	startTime 	219.1
scalar RSUExampleScenario.node[73].veinsmobility 	totalTime 	286.1
scalar RSUExampleScenario.node[73].veinsmobility 	stopTime 	505.3
scalar RSUExampleScenario.node[73].veinsmobility 	minSpeed 	0.24704630193044
scalar RSUExampleScenario.node[73].veinsmobility 	maxSpeed 	13.999919737964
scalar RSUExampleScenario.node[73].veinsmobility 	totalDistance 	3409.9273039877
scalar RSUExampleScenario.node[73].veinsmobility 	totalCO2Emission 	710.69933186978
scalar RSUExampleScenario.node[74].veinsmobility 	startTime 	222.1
scalar RSUExampleScenario.node[74].veinsmobility 	totalTime 	286.8
scalar RSUExampleScenario.node[74].veinsmobility 	stopTime 	509
scalar RSUExampleScenario.node[74].veinsmobility 	minSpeed 	0.25566410095058
scalar RSUExampleScenario.node[74].veinsmobility 	maxSpeed 	13.999958846015
scalar RSUExampleScenario.node[74].veinsmobility 	totalDistance 	3413.9681971039
scalar RSUExampleScenario.node[74].veinsmobility 	totalCO2Emission 	711.42302611856
scalar RSUExampleScenario.node[75].veinsmobility 	startTime 	225.1
scalar RSUExampleScenario.node[75].veinsmobility 	totalTime 	287.5
scalar RSUExampleScenario.node[75].veinsmobility 	stopTime 	512.7
scalar RSUExampleScenario.node[75].veinsmobility 	minSpeed 	0.25384520678967
scalar RSUExampleScenario.node[75].veinsmobility 	maxSpeed 	13.999973452103
scalar RSUExampleScenario.node[75].veinsmobility 	totalDistance 	3409.8919223962
scalar RSUExampleScenario.node[75].veinsmobility 	totalCO2Emission 	709.75289872406
scalar RSUExampleScenario.node[76].veinsmobility 	startTime 	228.1
scalar RSUExampleScenario.node[76].veinsmobility 	totalTime 	288.1
scalar RSUExampleScenario.node[76].veinsmobility 	stopTime 	516.3
scalar RSUExampleScenario.node[76].veinsmobility 	minSpeed 	0.25858081534249
scalar RSUExampleScenario.node[76].veinsmobility 	maxSpeed 	13.999927086274
scalar RSUExampleScenario.node[76].veinsmobility 	totalDistance 	3413.5825383225
scalar RSUExampleScenario.node[76].veinsmobility 	totalCO2Emission 	710.81177475895
scalar RSUExampleScenario.node[77].veinsmobility 	startTime 	231.1
scalar RSUExampleScenario.node[77].veinsmobility 	totalTime 	288.8
scalar RSUExampleScenario.node[77].veinsmobility 	stopTime 	520
scalar RSUExampleScenario.node[77].veinsmobility 	minSpeed 	0.25642144164862
scalar RSUExampleScenario.node[77].veinsmobility 	maxSpeed 	13.999955235014
scalar RSUExampleScenario.node[77].veinsmobility 	totalDistance 	3409.9349149719
scalar RSUExampleScenario.node[77].veinsmobility 	totalCO2Emission 	713.56975412489
scalar RSUExampleScenario.node[78].veinsmobility 	startTime 	234.1
scalar RSUExampleScenario.node[78].veinsmobility 	totalTime 	289.5
scalar RSUExampleScenario.node[78].veinsmobility 	stopTime 	523.7
scalar RSUExampleScenario.node[78].veinsmobility 	minSpeed 	0.25571482934058
scalar RSUExampleScenario.node[78].veinsmobility 	maxSpeed 	13.999905437613
scalar RSUExampleScenario.node[78].veinsmobility 	totalDistance 	3413.9238792712
scalar RSUExampleScenario.node[78].veinsmobility 	totalCO2Emission 	713.15625327012
scalar RSUExampleScenario.node[79].veinsmobility 	startTime 	237.1
scalar RSUExampleScenario.node[79].veinsmobility 	totalTime 	290.2
scalar RSUExampleScenario.node[79].veinsmobility 	stopTime 	527.4
scalar RSUExampleScenario.node[79].veinsmobility 	minSpeed 	0.25871084640664
scalar RSUExampleScenario.node[79].veinsmobility 	maxSpeed 	13.999989388348
scalar RSUExampleScenario.node[79].veinsmobility 	totalDistance 	3409.8968055038
scalar RSUExampleScenario.node[79].veinsmobility 	totalCO2Emission 	709.9939585143
scalar RSUExampleScenario.node[80].veinsmobility 	startTime 	240.1
scalar RSUExampleScenario.node[80].veinsmobility 	totalTime 	290.8
scalar RSUExampleScenario.node[80].veinsmobility 	stopTime 	531
scalar RSUExampleScenario.node[80].veinsmobility 	minSpeed 	0.25849169610743
scalar RSUExampleScenario.node[80].veinsmobility 	maxSpeed 	13.999899875144
scalar RSUExampleScenario.node[80].veinsmobility 	totalDistance 	3409.3774580041
scalar RSUExampleScenario.node[80].veinsmobility 	totalCO2Emission 	713.09529829978
scalar RSUExampleScenario.node[81].veinsmobility 	startTime 	243.1
scalar RSUExampleScenario.node[81].veinsmobility 	totalTime 	291.4
scalar RSUExampleScenario.node[81].veinsmobility 	stopTime 	534.6
scalar RSUExampleScenario.node[81].veinsmobility 	minSpeed 	0.25717336368142
scalar RSUExampleScenario.node[81].veinsmobility 	maxSpeed 	13.99989819966
scalar RSUExampleScenario.node[81].veinsmobility 	totalDistance 	3413.666185294
scalar RSUExampleScenario.node[81].veinsmobility 	totalCO2Emission 	718.27646096784
scalar RSUExampleScenario.node[82].veinsmobility 	startTime 	246.1
scalar RSUExampleScenario.node[82].veinsmobility 	totalTime 	292.2
scalar RSUExampleScenario.node[82].veinsmobility 	stopTime 	538.4
scalar RSUExampleScenario.node[82].veinsmobility 	minSpeed 	0.25893441596162
scalar RSUExampleScenario.node[82].veinsmobility 	maxSpeed 	13.999883810806
scalar RSUExampleScenario.node[82].veinsmobility 	totalDistance 	3409.8951774656
scalar RSUExampleScenario.node[82].veinsmobility 	totalCO2Emission 	709.74379435181
scalar RSUExampleScenario.node[83].veinsmobility 	startTime 	249.1
scalar RSUExampleScenario.node[83].veinsmobility 	totalTime 	292.9
scalar RSUExampleScenario.node[83].veinsmobility 	stopTime 	542.1
scalar RSUExampleScenario.node[83].veinsmobility 	minSpeed 	0.24744350469089
scalar RSUExampleScenario.node[83].veinsmobility 	maxSpeed 	13.999963944808
scalar RSUExampleScenario.node[83].veinsmobility 	totalDistance 	3414.0791047244
scalar RSUExampleScenario.node[83].veinsmobility 	totalCO2Emission 	712.30366773367
scalar RSUExampleScenario.node[84].veinsmobility 	startTime 	252.1
scalar RSUExampleScenario.node[84].veinsmobility 	totalTime 	293.5
scalar RSUExampleScenario.node[84].veinsmobility 	stopTime 	545.7
scalar RSUExampleScenario.node[84].veinsmobility 	minSpeed 	0.25855207063444
scalar RSUExampleScenario.node[84].veinsmobility 	maxSpeed 	13.999927952846
scalar RSUExampleScenario.node[84].veinsmobility 	totalDistance 	3409.3704348929
scalar RSUExampleScenario.node[84].veinsmobility 	totalCO2Emission 	712.95918464489
scalar RSUExampleScenario.node[85].veinsmobility 	startTime 	255.1
scalar RSUExampleScenario.node[85].veinsmobility 	totalTime 	294.2
scalar RSUExampleScenario.node[85].veinsmobility 	stopTime 	549.4
scalar RSUExampleScenario.node[85].veinsmobility 	minSpeed 	0.25541714372416
scalar RSUExampleScenario.node[85].veinsmobility 	maxSpeed 	13.999968484673
scalar RSUExampleScenario.node[85].veinsmobility 	totalDistance 	3413.9446044937
scalar RSUExampleScenario.node[85].veinsmobility 	totalCO2Emission 	715.8798840178
scalar RSUExampleScenario.node[86].veinsmobility 	startTime 	258.1
scalar RSUExampleScenario.node[86].veinsmobility 	totalTime 	294.9
scalar RSUExampleScenario.node[86].veinsmobility 	stopTime 	553.1
scalar RSUExampleScenario.node[86].veinsmobility 	minSpeed 	0.25430126063502
scalar RSUExampleScenario.node[86].veinsmobility 	maxSpeed 	13.99994343607
scalar RSUExampleScenario.node[86].veinsmobility 	totalDistance 	3410.0791779677
scalar RSUExampleScenario.node[86].veinsmobility 	totalCO2Emission 	716.90320281062
scalar RSUExampleScenario.node[87].veinsmobility 	startTime 	261.1
scalar RSUExampleScenario.node[87].veinsmobility 	totalTime 	295.5
scalar RSUExampleScenario.node[87].veinsmobility 	stopTime 	556.7
scalar RSUExampleScenario.node[87].veinsmobility 	minSpeed 	0.24972408937663
scalar RSUExampleScenario.node[87].veinsmobility 	maxSpeed 	13.999980999001
scalar RSUExampleScenario.node[87].veinsmobility 	totalDistance 	3413.5062295547
scalar RSUExampleScenario.node[87].veinsmobility 	totalCO2Emission 	716.03391598084
scalar RSUExampleScenario.node[88].veinsmobility 	startTime 	264.1
scalar RSUExampleScenario.node[88].veinsmobility 	totalTime 	296.1
scalar RSUExampleScenario.node[88].veinsmobility 	stopTime 	560.3
scalar RSUExampleScenario.node[88].veinsmobility 	minSpeed 	0.25156143116532
scalar RSUExampleScenario.node[88].veinsmobility 	maxSpeed 	13.999880827956
scalar RSUExampleScenario.node[88].veinsmobility 	totalDistance 	3409.633893877
scalar RSUExampleScenario.node[88].veinsmobility 	totalCO2Emission 	713.61180157899
scalar RSUExampleScenario.node[89].veinsmobility 	startTime 	267.1
scalar RSUExampleScenario.node[89].veinsmobility 	totalTime 	296.8
scalar RSUExampleScenario.node[89].veinsmobility 	stopTime 	564
scalar RSUExampleScenario.node[89].veinsmobility 	minSpeed 	0.25878878412489
scalar RSUExampleScenario.node[89].veinsmobility 	maxSpeed 	13.999826871522
scalar RSUExampleScenario.node[89].veinsmobility 	totalDistance 	3414.1603018737
scalar RSUExampleScenario.node[89].veinsmobility 	totalCO2Emission 	716.10519846314
scalar RSUExampleScenario.node[90].veinsmobility 	startTime 	270.1
scalar RSUExampleScenario.node[90].veinsmobility 	totalTime 	297.5
scalar RSUExampleScenario.node[90].veinsmobility 	stopTime 	567.7
scalar RSUExampleScenario.node[90].veinsmobility 	minSpeed 	0.25265216451115
scalar RSUExampleScenario.node[90].veinsmobility 	maxSpeed 	13.999996798737
scalar RSUExampleScenario.node[90].veinsmobility 	totalDistance 	3409.6048063865
scalar RSUExampleScenario.node[90].veinsmobility 	totalCO2Emission 	725.63297834663
scalar RSUExampleScenario.node[91].veinsmobility 	startTime 	273.1
scalar RSUExampleScenario.node[91].veinsmobility 	totalTime 	298.2
scalar RSUExampleScenario.node[91].veinsmobility 	stopTime 	571.4
scalar RSUExampleScenario.node[91].veinsmobility 	minSpeed 	0.25451214761124
scalar RSUExampleScenario.node[91].veinsmobility 	maxSpeed 	13.999995096677
scalar RSUExampleScenario.node[91].veinsmobility 	totalDistance 	3413.720492628
scalar RSUExampleScenario.node[91].veinsmobility 	totalCO2Emission 	721.59238139073
scalar RSUExampleScenario.node[92].veinsmobility 	startTime 	276.1
scalar RSUExampleScenario.node[92].veinsmobility 	totalTime 	298.9
scalar RSUExampleScenario.node[92].veinsmobility 	stopTime 	575.1
scalar RSUExampleScenario.node[92].veinsmobility 	minSpeed 	0.25777150931396
scalar RSUExampleScenario.node[92].veinsmobility 	maxSpeed 	13.999970265368
scalar RSUExampleScenario.node[92].veinsmobility 	totalDistance 	3409.8918367639
scalar RSUExampleScenario.node[92].veinsmobility 	totalCO2Emission 	719.36381888737
scalar RSUExampleScenario.node[93].veinsmobility 	startTime 	279.1
scalar RSUExampleScenario.node[93].veinsmobility 	totalTime 	299.6
scalar RSUExampleScenario.node[93].veinsmobility 	stopTime 	578.8
scalar RSUExampleScenario.node[93].veinsmobility 	minSpeed 	0.24964645204693
scalar RSUExampleScenario.node[93].veinsmobility 	maxSpeed 	13.999755451037
scalar RSUExampleScenario.node[93].veinsmobility 	totalDistance 	3414.021899829
scalar RSUExampleScenario.node[93].veinsmobility 	totalCO2Emission 	719.50919083793
scalar RSUExampleScenario.node[94].veinsmobility 	startTime 	282.1
scalar RSUExampleScenario.node[94].veinsmobility 	totalTime 	300.3
scalar RSUExampleScenario.node[94].veinsmobility 	stopTime 	582.5
scalar RSUExampleScenario.node[94].veinsmobility 	minSpeed 	0.25746444392181
scalar RSUExampleScenario.node[94].veinsmobility 	maxSpeed 	13.999941228444
scalar RSUExampleScenario.node[94].veinsmobility 	totalDistance 	3409.5370792876
scalar RSUExampleScenario.node[94].veinsmobility 	totalCO2Emission 	722.51033197876
scalar RSUExampleScenario.node[95].veinsmobility 	startTime 	285.1
scalar RSUExampleScenario.node[95].veinsmobility 	totalTime 	301
scalar RSUExampleScenario.node[95].veinsmobility 	stopTime 	586.2
scalar RSUExampleScenario.node[95].veinsmobility 	minSpeed 	0.25107457609614
scalar RSUExampleScenario.node[95].veinsmobility 	maxSpeed 	13.999982611134
scalar RSUExampleScenario.node[95].veinsmobility 	totalDistance 	3414.1072288695
scalar RSUExampleScenario.node[95].veinsmobility 	totalCO2Emission 	725.93953344423
scalar RSUExampleScenario.node[96].veinsmobility 	startTime 	288.1
scalar RSUExampleScenario.node[96].veinsmobility 	totalTime 	301.7
scalar RSUExampleScenario.node[96].veinsmobility 	stopTime 	589.9
scalar RSUExampleScenario.node[96].veinsmobility 	minSpeed 	0.24816350390157
scalar RSUExampleScenario.node[96].veinsmobility 	maxSpeed 	13.999983831963
scalar RSUExampleScenario.node[96].veinsmobility 	totalDistance 	3409.4366612972
scalar RSUExampleScenario.node[96].veinsmobility 	totalCO2Emission 	722.73520112506
scalar RSUExampleScenario.node[97].veinsmobility 	startTime 	291.1
scalar RSUExampleScenario.node[97].veinsmobility 	totalTime 	302.4
scalar RSUExampleScenario.node[97].veinsmobility 	stopTime 	593.6
scalar RSUExampleScenario.node[97].veinsmobility 	minSpeed 	0.25044553322368
scalar RSUExampleScenario.node[97].veinsmobility 	maxSpeed 	13.999977040554
scalar RSUExampleScenario.node[97].veinsmobility 	totalDistance 	3414.0104851176
scalar RSUExampleScenario.node[97].veinsmobility 	totalCO2Emission 	720.80869535945
scalar RSUExampleScenario.node[98].veinsmobility 	startTime 	294.1
scalar RSUExampleScenario.node[98].veinsmobility 	totalTime 	303.1
scalar RSUExampleScenario.node[98].veinsmobility 	stopTime 	597.3
scalar RSUExampleScenario.node[98].veinsmobility 	minSpeed 	0.25716861135676
scalar RSUExampleScenario.node[98].veinsmobility 	maxSpeed 	13.999912831325
scalar RSUExampleScenario.node[98].veinsmobility 	totalDistance 	3409.8270160741
scalar RSUExampleScenario.node[98].veinsmobility 	totalCO2Emission 	725.38043307342
scalar RSUExampleScenario.node[99].veinsmobility 	startTime 	297.1
scalar RSUExampleScenario.node[99].veinsmobility 	totalTime 	303.9
scalar RSUExampleScenario.node[99].veinsmobility 	stopTime 	601.1
scalar RSUExampleScenario.node[99].veinsmobility 	minSpeed 	0.25426713261171
scalar RSUExampleScenario.node[99].veinsmobility 	maxSpeed 	13.999911837718
scalar RSUExampleScenario.node[99].veinsmobility 	totalDistance 	3414.134530359
scalar RSUExampleScenario.node[99].veinsmobility 	totalCO2Emission 	725.71015696072
scalar RSUExampleScenario.node[100].veinsmobility 	startTime 	300.1
scalar RSUExampleScenario.node[100].veinsmobility 	totalTime 	304.6
scalar RSUExampleScenario.node[100].veinsmobility 	stopTime 	604.8
scalar RSUExampleScenario.node[100].veinsmobility 	minSpeed 	0.25068710547616
scalar RSUExampleScenario.node[100].veinsmobility 	maxSpeed 	13.999935807055
scalar RSUExampleScenario.node[100].veinsmobility 	totalDistance 	3409.7616670842
scalar RSUExampleScenario.node[100].veinsmobility 	totalCO2Emission 	724.64512669005
scalar RSUExampleScenario.node[101].veinsmobility 	startTime 	303.1
scalar RSUExampleScenario.node[101].veinsmobility 	totalTime 	305.4
scalar RSUExampleScenario.node[101].veinsmobility 	stopTime 	608.6
scalar RSUExampleScenario.node[101].veinsmobility 	minSpeed 	0.25376979425666
scalar RSUExampleScenario.node[101].veinsmobility 	maxSpeed 	13.999836177807
scalar RSUExampleScenario.node[101].veinsmobility 	totalDistance 	3414.2830157309
scalar RSUExampleScenario.node[101].veinsmobility 	totalCO2Emission 	727.37854396545
scalar RSUExampleScenario.node[102].veinsmobility 	startTime 	306.1
scalar RSUExampleScenario.node[102].veinsmobility 	totalTime 	306
scalar RSUExampleScenario.node[102].veinsmobility 	stopTime 	612.2
scalar RSUExampleScenario.node[102].veinsmobility 	minSpeed 	0.24903528262163
scalar RSUExampleScenario.node[102].veinsmobility 	maxSpeed 	13.999975477576
scalar RSUExampleScenario.node[102].veinsmobility 	totalDistance 	3409.4285559133
scalar RSUExampleScenario.node[102].veinsmobility 	totalCO2Emission 	729.97370460653
scalar RSUExampleScenario.node[103].veinsmobility 	startTime 	309.1
scalar RSUExampleScenario.node[103].veinsmobility 	totalTime 	306.7
scalar RSUExampleScenario.node[103].veinsmobility 	stopTime 	615.9
scalar RSUExampleScenario.node[103].veinsmobility 	minSpeed 	0.25202278023702
scalar RSUExampleScenario.node[103].veinsmobility 	maxSpeed 	13.999870675651
scalar RSUExampleScenario.node[103].veinsmobility 	totalDistance 	3413.7797373566
scalar RSUExampleScenario.node[103].veinsmobility 	totalCO2Emission 	728.21270832697
scalar RSUExampleScenario.node[104].veinsmobility 	startTime 	312.1
scalar RSUExampleScenario.node[104].veinsmobility 	totalTime 	307.3
scalar RSUExampleScenario.node[104].veinsmobility 	stopTime 	619.5
scalar RSUExampleScenario.node[104].veinsmobility 	minSpeed 	0.25184800124913
scalar RSUExampleScenario.node[104].veinsmobility 	maxSpeed 	13.999884268912
scalar RSUExampleScenario.node[104].veinsmobility 	totalDistance 	3409.5793373367
scalar RSUExampleScenario.node[104].veinsmobility 	totalCO2Emission 	733.636487596
scalar RSUExampleScenario.node[105].veinsmobility 	startTime 	315.1
scalar RSUExampleScenario.node[105].veinsmobility 	totalTime 	308
scalar RSUExampleScenario.node[105].veinsmobility 	stopTime 	623.2
scalar RSUExampleScenario.node[105].veinsmobility 	minSpeed 	0.25049580377713
scalar RSUExampleScenario.node[105].veinsmobility 	maxSpeed 	13.999898671114
scalar RSUExampleScenario.node[105].veinsmobility 	totalDistance 	3414.0175324922
scalar RSUExampleScenario.node[105].veinsmobility 	totalCO2Emission 	730.33686418357
scalar RSUExampleScenario.node[106].veinsmobility 	startTime 	318.1
scalar RSUExampleScenario.node[106].veinsmobility 	totalTime 	308.7
scalar RSUExampleScenario.node[106].veinsmobility 	stopTime 	626.9
scalar RSUExampleScenario.node[106].veinsmobility 	minSpeed 	0.25275859692693
scalar RSUExampleScenario.node[106].veinsmobility 	maxSpeed 	13.999713890674
scalar RSUExampleScenario.node[106].veinsmobility 	totalDistance 	3409.5346739483
scalar RSUExampleScenario.node[106].veinsmobility 	totalCO2Emission 	726.46159251707
scalar RSUExampleScenario.node[107].veinsmobility 	startTime 	321.1
scalar RSUExampleScenario.node[107].veinsmobility 	totalTime 	309.4
scalar RSUExampleScenario.node[107].veinsmobility 	stopTime 	630.6
scalar RSUExampleScenario.node[107].veinsmobility 	minSpeed 	0.250697242914
scalar RSUExampleScenario.node[107].veinsmobility 	maxSpeed 	13.999961026127
scalar RSUExampleScenario.node[107].veinsmobility 	totalDistance 	3413.82362172
scalar RSUExampleScenario.node[107].veinsmobility 	totalCO2Emission 	730.6160518633
scalar RSUExampleScenario.node[108].veinsmobility 	startTime 	324.1
scalar RSUExampleScenario.node[108].veinsmobility 	totalTime 	310.1
scalar RSUExampleScenario.node[108].veinsmobility 	stopTime 	634.3
scalar RSUExampleScenario.node[108].veinsmobility 	minSpeed 	0.25340442971326
scalar RSUExampleScenario.node[108].veinsmobility 	maxSpeed 	13.999973154296
scalar RSUExampleScenario.node[108].veinsmobility 	totalDistance 	3409.8397557919
scalar RSUExampleScenario.node[108].veinsmobility 	totalCO2Emission 	733.42926681573
scalar RSUExampleScenario.node[109].veinsmobility 	startTime 	327.1
scalar RSUExampleScenario.node[109].veinsmobility 	totalTime 	310.8
scalar RSUExampleScenario.node[109].veinsmobility 	stopTime 	638
scalar RSUExampleScenario.node[109].veinsmobility 	minSpeed 	0.25418240214954
scalar RSUExampleScenario.node[109].veinsmobility 	maxSpeed 	13.999983721303
scalar RSUExampleScenario.node[109].veinsmobility 	totalDistance 	3409.8267519717
scalar RSUExampleScenario.node[109].veinsmobility 	totalCO2Emission 	735.58793603939
scalar RSUExampleScenario.node[110].veinsmobility 	startTime 	330.1
scalar RSUExampleScenario.node[110].veinsmobility 	totalTime 	311.5
scalar RSUExampleScenario.node[110].veinsmobility 	stopTime 	641.7
scalar RSUExampleScenario.node[110].veinsmobility 	minSpeed 	0.2536953913183
scalar RSUExampleScenario.node[110].veinsmobility 	maxSpeed 	13.999911717311
scalar RSUExampleScenario.node[110].veinsmobility 	totalDistance 	3413.7804480718
scalar RSUExampleScenario.node[110].veinsmobility 	totalCO2Emission 	734.23991322232
scalar RSUExampleScenario.node[111].veinsmobility 	startTime 	333.1
scalar RSUExampleScenario.node[111].veinsmobility 	totalTime 	312.2
scalar RSUExampleScenario.node[111].veinsmobility 	stopTime 	645.4
scalar RSUExampleScenario.node[111].veinsmobility 	minSpeed 	0.25069369131117
scalar RSUExampleScenario.node[111].veinsmobility 	maxSpeed 	13.999996523601
scalar RSUExampleScenario.node[111].veinsmobility 	totalDistance 	3409.5642221601
scalar RSUExampleScenario.node[111].veinsmobility 	totalCO2Emission 	732.28513882676
scalar RSUExampleScenario.node[112].veinsmobility 	startTime 	336.1
scalar RSUExampleScenario.node[112].veinsmobility 	totalTime 	312.9
scalar RSUExampleScenario.node[112].veinsmobility 	stopTime 	649.1
scalar RSUExampleScenario.node[112].veinsmobility 	minSpeed 	0.25555750478501
scalar RSUExampleScenario.node[112].veinsmobility 	maxSpeed 	13.999915036922
scalar RSUExampleScenario.node[112].veinsmobility 	totalDistance 	3413.874791101
scalar RSUExampleScenario.node[112].veinsmobility 	totalCO2Emission 	734.1657619036
scalar RSUExampleScenario.node[113].veinsmobility 	startTime 	339.1
scalar RSUExampleScenario.node[113].veinsmobility 	totalTime 	313.6
scalar RSUExampleScenario.node[113].veinsmobility 	stopTime 	652.8
scalar RSUExampleScenario.node[113].veinsmobility 	minSpeed 	0.24996199241397
scalar RSUExampleScenario.node[113].veinsmobility 	maxSpeed 	13.999953889966
scalar RSUExampleScenario.node[113].veinsmobility 	totalDistance 	3410.0851690916
scalar RSUExampleScenario.node[113].veinsmobility 	totalCO2Emission 	736.48070322839
scalar RSUExampleScenario.node[114].veinsmobility 	startTime 	342.1
scalar RSUExampleScenario.node[114].veinsmobility 	totalTime 	314.2
scalar RSUExampleScenario.node[114].veinsmobility 	stopTime 	656.4
scalar RSUExampleScenario.node[114].veinsmobility 	minSpeed 	0.24875311181066
scalar RSUExampleScenario.node[114].veinsmobility 	maxSpeed 	13.999986187539
scalar RSUExampleScenario.node[114].veinsmobility 	totalDistance 	3413.6116857675
scalar RSUExampleScenario.node[114].veinsmobility 	totalCO2Emission 	733.50225964392
scalar RSUExampleScenario.node[115].veinsmobility 	startTime 	345.1
scalar RSUExampleScenario.node[115].veinsmobility 	totalTime 	314.9
scalar RSUExampleScenario.node[115].veinsmobility 	stopTime 	660.1
scalar RSUExampleScenario.node[115].veinsmobility 	minSpeed 	0.25477616829239
scalar RSUExampleScenario.node[115].veinsmobility 	maxSpeed 	13.99998265018
scalar RSUExampleScenario.node[115].veinsmobility 	totalDistance 	3410.1696413163
scalar RSUExampleScenario.node[115].veinsmobility 	totalCO2Emission 	738.25519053394
scalar RSUExampleScenario.node[116].veinsmobility 	startTime 	348.1
scalar RSUExampleScenario.node[116].veinsmobility 	totalTime 	315.6
scalar RSUExampleScenario.node[116].veinsmobility 	stopTime 	663.8
scalar RSUExampleScenario.node[116].veinsmobility 	minSpeed 	0.25839423474669
scalar RSUExampleScenario.node[116].veinsmobility 	maxSpeed 	13.999874323125
scalar RSUExampleScenario.node[116].veinsmobility 	totalDistance 	3414.1078243135
scalar RSUExampleScenario.node[116].veinsmobility 	totalCO2Emission 	740.08349605989
scalar RSUExampleScenario.node[117].veinsmobility 	startTime 	351.1
scalar RSUExampleScenario.node[117].veinsmobility 	totalTime 	316.3
scalar RSUExampleScenario.node[117].veinsmobility 	stopTime 	667.5
scalar RSUExampleScenario.node[117].veinsmobility 	minSpeed 	0.2529415636647
scalar RSUExampleScenario.node[117].veinsmobility 	maxSpeed 	13.999975454663
scalar RSUExampleScenario.node[117].veinsmobility 	totalDistance 	3409.6889257664
scalar RSUExampleScenario.node[117].veinsmobility 	totalCO2Emission 	738.1509385194
scalar RSUExampleScenario.node[118].veinsmobility 	startTime 	354.1
scalar RSUExampleScenario.node[118].veinsmobility 	totalTime 	317
scalar RSUExampleScenario.node[118].veinsmobility 	stopTime 	671.2
scalar RSUExampleScenario.node[118].veinsmobility 	minSpeed 	0.25373795878794
scalar RSUExampleScenario.node[118].veinsmobility 	maxSpeed 	13.999750560033
scalar RSUExampleScenario.node[118].veinsmobility 	totalDistance 	3410.2090812405
scalar RSUExampleScenario.node[118].veinsmobility 	totalCO2Emission 	737.33040949868
scalar RSUExampleScenario.node[119].veinsmobility 	startTime 	357.1
scalar RSUExampleScenario.node[119].veinsmobility 	totalTime 	317.7
scalar RSUExampleScenario.node[119].veinsmobility 	stopTime 	674.9
scalar RSUExampleScenario.node[119].veinsmobility 	minSpeed 	0.25440689739329
scalar RSUExampleScenario.node[119].veinsmobility 	maxSpeed 	13.999943206881
scalar RSUExampleScenario.node[119].veinsmobility 	totalDistance 	3414.1472968397
scalar RSUExampleScenario.node[119].veinsmobility 	totalCO2Emission 	739.65930010034
scalar RSUExampleScenario.node[120].veinsmobility 	startTime 	360.1
scalar RSUExampleScenario.node[120].veinsmobility 	totalTime 	318.5
scalar RSUExampleScenario.node[120].veinsmobility 	stopTime 	678.7
scalar RSUExampleScenario.node[120].veinsmobility 	minSpeed 	0.25797405508766
scalar RSUExampleScenario.node[120].veinsmobility 	maxSpeed 	13.999891688018
scalar RSUExampleScenario.node[120].veinsmobility 	totalDistance 	3410.0845057156
scalar RSUExampleScenario.node[120].veinsmobility 	totalCO2Emission 	742.87108122168
scalar RSUExampleScenario.node[121].veinsmobility 	startTime 	363.1
scalar RSUExampleScenario.node[121].veinsmobility 	totalTime 	319.2
scalar RSUExampleScenario.node[121].veinsmobility 	stopTime 	682.4
scalar RSUExampleScenario.node[121].veinsmobility 	minSpeed 	0.25991284225136
scalar RSUExampleScenario.node[121].veinsmobility 	maxSpeed 	13.999923073163
scalar RSUExampleScenario.node[121].veinsmobility 	totalDistance 	3414.0228922371
scalar RSUExampleScenario.node[121].veinsmobility 	totalCO2Emission 	739.83588882161
scalar RSUExampleScenario.node[122].veinsmobility 	startTime 	366.1
scalar RSUExampleScenario.node[122].veinsmobility 	totalTime 	320
scalar RSUExampleScenario.node[122].veinsmobility 	stopTime 	686.2
scalar RSUExampleScenario.node[122].veinsmobility 	minSpeed 	0.25086941200867
scalar RSUExampleScenario.node[122].veinsmobility 	maxSpeed 	13.999885451482
scalar RSUExampleScenario.node[122].veinsmobility 	totalDistance 	3409.8163300422
scalar RSUExampleScenario.node[122].veinsmobility 	totalCO2Emission 	741.50930156229
scalar RSUExampleScenario.node[123].veinsmobility 	startTime 	369.1
scalar RSUExampleScenario.node[123].veinsmobility 	totalTime 	320.7
scalar RSUExampleScenario.node[123].veinsmobility 	stopTime 	689.9
scalar RSUExampleScenario.node[123].veinsmobility 	minSpeed 	0.25368254919094
scalar RSUExampleScenario.node[123].veinsmobility 	maxSpeed 	13.999991686293
scalar RSUExampleScenario.node[123].veinsmobility 	totalDistance 	3413.772591605
scalar RSUExampleScenario.node[123].veinsmobility 	totalCO2Emission 	744.0990834262
scalar RSUExampleScenario.node[124].veinsmobility 	startTime 	372.1
scalar RSUExampleScenario.node[124].veinsmobility 	totalTime 	321.4
scalar RSUExampleScenario.node[124].veinsmobility 	stopTime 	693.6
scalar RSUExampleScenario.node[124].veinsmobility 	minSpeed 	0.25367774513224
scalar RSUExampleScenario.node[124].veinsmobility 	maxSpeed 	13.999875906534
scalar RSUExampleScenario.node[124].veinsmobility 	totalDistance 	3409.8510753679
scalar RSUExampleScenario.node[124].veinsmobility 	totalCO2Emission 	741.6891856961
scalar RSUExampleScenario.node[125].veinsmobility 	startTime 	375.1
scalar RSUExampleScenario.node[125].veinsmobility 	totalTime 	322
scalar RSUExampleScenario.node[125].veinsmobility 	stopTime 	697.2
scalar RSUExampleScenario.node[125].veinsmobility 	minSpeed 	0.25758281408786
scalar RSUExampleScenario.node[125].veinsmobility 	maxSpeed 	13.999736487751
scalar RSUExampleScenario.node[125].veinsmobility 	totalDistance 	3413.5994934006
scalar RSUExampleScenario.node[125].veinsmobility 	totalCO2Emission 	743.79077284686
scalar RSUExampleScenario.node[126].veinsmobility 	startTime 	378.1
scalar RSUExampleScenario.node[126].veinsmobility 	totalTime 	322.7
scalar RSUExampleScenario.node[126].veinsmobility 	stopTime 	700.9
scalar RSUExampleScenario.node[126].veinsmobility 	minSpeed 	0.25986741206306
scalar RSUExampleScenario.node[126].veinsmobility 	maxSpeed 	13.999786600273
scalar RSUExampleScenario.node[126].veinsmobility 	totalDistance 	3410.1053472786
scalar RSUExampleScenario.node[126].veinsmobility 	totalCO2Emission 	743.44337087974
scalar RSUExampleScenario.node[127].veinsmobility 	startTime 	381.1
scalar RSUExampleScenario.node[127].veinsmobility 	totalTime 	323.3
scalar RSUExampleScenario.node[127].veinsmobility 	stopTime 	704.5
scalar RSUExampleScenario.node[127].veinsmobility 	minSpeed 	0.25549879663158
scalar RSUExampleScenario.node[127].veinsmobility 	maxSpeed 	13.999987595938
scalar RSUExampleScenario.node[127].veinsmobility 	totalDistance 	3413.7707096191
scalar RSUExampleScenario.node[127].veinsmobility 	totalCO2Emission 	745.5623319668
scalar RSUExampleScenario.node[128].veinsmobility 	startTime 	384.1
scalar RSUExampleScenario.node[128].veinsmobility 	totalTime 	323.9
scalar RSUExampleScenario.node[128].veinsmobility 	stopTime 	708.1
scalar RSUExampleScenario.node[128].veinsmobility 	minSpeed 	0.25783172388375
scalar RSUExampleScenario.node[128].veinsmobility 	maxSpeed 	13.999966434047
scalar RSUExampleScenario.node[128].veinsmobility 	totalDistance 	3409.9362675649
scalar RSUExampleScenario.node[128].veinsmobility 	totalCO2Emission 	748.24934528579
scalar RSUExampleScenario.node[129].veinsmobility 	startTime 	387.1
scalar RSUExampleScenario.node[129].veinsmobility 	totalTime 	324.5
scalar RSUExampleScenario.node[129].veinsmobility 	stopTime 	711.7
scalar RSUExampleScenario.node[129].veinsmobility 	minSpeed 	0.25453818170633
scalar RSUExampleScenario.node[129].veinsmobility 	maxSpeed 	13.999928319179
scalar RSUExampleScenario.node[129].veinsmobility 	totalDistance 	3413.6039130143
scalar RSUExampleScenario.node[129].veinsmobility 	totalCO2Emission 	745.86048741349
scalar RSUExampleScenario.node[130].veinsmobility 	startTime 	390.1
scalar RSUExampleScenario.node[130].veinsmobility 	totalTime 	325.2
scalar RSUExampleScenario.node[130].veinsmobility 	stopTime 	715.4
scalar RSUExampleScenario.node[130].veinsmobility 	minSpeed 	0.24746309017693
scalar RSUExampleScenario.node[130].veinsmobility 	maxSpeed 	13.999830475894
scalar RSUExampleScenario.node[130].veinsmobility 	totalDistance 	3409.973116203
scalar RSUExampleScenario.node[130].veinsmobility 	totalCO2Emission 	747.29358704024
scalar RSUExampleScenario.node[131].veinsmobility 	startTime 	393.1
scalar RSUExampleScenario.node[131].veinsmobility 	totalTime 	325.9
scalar RSUExampleScenario.node[131].veinsmobility 	stopTime 	719.1
scalar RSUExampleScenario.node[131].veinsmobility 	minSpeed 	0.24899969083257
scalar RSUExampleScenario.node[131].veinsmobility 	maxSpeed 	13.999984322758
scalar RSUExampleScenario.node[131].veinsmobility 	totalDistance 	3414.0419991613
scalar RSUExampleScenario.node[131].veinsmobility 	totalCO2Emission 	747.88453841905
scalar RSUExampleScenario.node[132].veinsmobility 	startTime 	396.1
scalar RSUExampleScenario.node[132].veinsmobility 	totalTime 	326.6
scalar RSUExampleScenario.node[132].veinsmobility 	stopTime 	722.8
scalar RSUExampleScenario.node[132].veinsmobility 	minSpeed 	0.25681780375517
scalar RSUExampleScenario.node[132].veinsmobility 	maxSpeed 	13.999975493103
scalar RSUExampleScenario.node[132].veinsmobility 	totalDistance 	3409.8921236926
scalar RSUExampleScenario.node[132].veinsmobility 	totalCO2Emission 	751.63556591013
scalar RSUExampleScenario.node[133].veinsmobility 	startTime 	399.1
scalar RSUExampleScenario.node[133].veinsmobility 	totalTime 	327.3
scalar RSUExampleScenario.node[133].veinsmobility 	stopTime 	726.5
scalar RSUExampleScenario.node[133].veinsmobility 	minSpeed 	0.25945303174062
scalar RSUExampleScenario.node[133].veinsmobility 	maxSpeed 	13.999995859188
scalar RSUExampleScenario.node[133].veinsmobility 	totalDistance 	3413.706978778
scalar RSUExampleScenario.node[133].veinsmobility 	totalCO2Emission 	747.66002210096
scalar RSUExampleScenario.node[134].veinsmobility 	startTime 	402.1
scalar RSUExampleScenario.node[134].veinsmobility 	totalTime 	328
scalar RSUExampleScenario.node[134].veinsmobility 	stopTime 	730.2
scalar RSUExampleScenario.node[134].veinsmobility 	minSpeed 	0.24803238787851
scalar RSUExampleScenario.node[134].veinsmobility 	maxSpeed 	13.999918793361
scalar RSUExampleScenario.node[134].veinsmobility 	totalDistance 	3409.7045534914
scalar RSUExampleScenario.node[134].veinsmobility 	totalCO2Emission 	747.36612938979
scalar RSUExampleScenario.node[135].veinsmobility 	startTime 	405.1
scalar RSUExampleScenario.node[135].veinsmobility 	totalTime 	328.7
scalar RSUExampleScenario.node[135].veinsmobility 	stopTime 	733.9
scalar RSUExampleScenario.node[135].veinsmobility 	minSpeed 	0.25364807846141
scalar RSUExampleScenario.node[135].veinsmobility 	maxSpeed 	13.999910784089
scalar RSUExampleScenario.node[135].veinsmobility 	totalDistance 	3414.2800960233
scalar RSUExampleScenario.node[135].veinsmobility 	totalCO2Emission 	751.09258310462
scalar RSUExampleScenario.node[136].veinsmobility 	startTime 	408.1
scalar RSUExampleScenario.node[136].veinsmobility 	totalTime 	329.4
scalar RSUExampleScenario.node[136].veinsmobility 	stopTime 	737.6
scalar RSUExampleScenario.node[136].veinsmobility 	minSpeed 	0.25157520024362
scalar RSUExampleScenario.node[136].veinsmobility 	maxSpeed 	13.9999784689
scalar RSUExampleScenario.node[136].veinsmobility 	totalDistance 	3409.9043168212
scalar RSUExampleScenario.node[136].veinsmobility 	totalCO2Emission 	751.41124832813
scalar RSUExampleScenario.node[137].veinsmobility 	startTime 	411.1
scalar RSUExampleScenario.node[137].veinsmobility 	totalTime 	330.1
scalar RSUExampleScenario.node[137].veinsmobility 	stopTime 	741.3
scalar RSUExampleScenario.node[137].veinsmobility 	minSpeed 	0.25424583971174
scalar RSUExampleScenario.node[137].veinsmobility 	maxSpeed 	13.999958824797
scalar RSUExampleScenario.node[137].veinsmobility 	totalDistance 	3409.669108477
scalar RSUExampleScenario.node[137].veinsmobility 	totalCO2Emission 	749.98599076013
scalar RSUExampleScenario.node[138].veinsmobility 	startTime 	414.1
scalar RSUExampleScenario.node[138].veinsmobility 	totalTime 	330.7
scalar RSUExampleScenario.node[138].veinsmobility 	stopTime 	744.9
scalar RSUExampleScenario.node[138].veinsmobility 	minSpeed 	0.25095586861158
scalar RSUExampleScenario.node[138].veinsmobility 	maxSpeed 	13.999963095398
scalar RSUExampleScenario.node[138].veinsmobility 	totalDistance 	3413.754983556
scalar RSUExampleScenario.node[138].veinsmobility 	totalCO2Emission 	755.50040171994
scalar RSUExampleScenario.node[139].veinsmobility 	startTime 	417.1
scalar RSUExampleScenario.node[139].veinsmobility 	totalTime 	331.4
scalar RSUExampleScenario.node[139].veinsmobility 	stopTime 	748.6
scalar RSUExampleScenario.node[139].veinsmobility 	minSpeed 	0.25475199694349
scalar RSUExampleScenario.node[139].veinsmobility 	maxSpeed 	13.999988415898
scalar RSUExampleScenario.node[139].veinsmobility 	totalDistance 	3410.2221488334
scalar RSUExampleScenario.node[139].veinsmobility 	totalCO2Emission 	753.74449941138
scalar RSUExampleScenario.node[140].veinsmobility 	startTime 	420.1
scalar RSUExampleScenario.node[140].veinsmobility 	totalTime 	332.1
scalar RSUExampleScenario.node[140].veinsmobility 	stopTime 	752.3
scalar RSUExampleScenario.node[140].veinsmobility 	minSpeed 	0.2587222858218
scalar RSUExampleScenario.node[140].veinsmobility 	maxSpeed 	13.999949786838
scalar RSUExampleScenario.node[140].veinsmobility 	totalDistance 	3413.6883458276
scalar RSUExampleScenario.node[140].veinsmobility 	totalCO2Emission 	750.16937746011
scalar RSUExampleScenario.node[141].veinsmobility 	startTime 	423.1
scalar RSUExampleScenario.node[141].veinsmobility 	totalTime 	332.8
scalar RSUExampleScenario.node[141].veinsmobility 	stopTime 	756
scalar RSUExampleScenario.node[141].veinsmobility 	minSpeed 	0.25034909251449
scalar RSUExampleScenario.node[141].veinsmobility 	maxSpeed 	13.99995315739
scalar RSUExampleScenario.node[141].veinsmobility 	totalDistance 	3409.9146636287
scalar RSUExampleScenario.node[141].veinsmobility 	totalCO2Emission 	756.49547538515
scalar RSUExampleScenario.node[142].veinsmobility 	startTime 	426.1
scalar RSUExampleScenario.node[142].veinsmobility 	totalTime 	333.5
scalar RSUExampleScenario.node[142].veinsmobility 	stopTime 	759.7
scalar RSUExampleScenario.node[142].veinsmobility 	minSpeed 	0.25272416790063
scalar RSUExampleScenario.node[142].veinsmobility 	maxSpeed 	13.999972662653
scalar RSUExampleScenario.node[142].veinsmobility 	totalDistance 	3413.9120747432
scalar RSUExampleScenario.node[142].veinsmobility 	totalCO2Emission 	754.92829200887
scalar RSUExampleScenario.node[143].veinsmobility 	startTime 	429.1
scalar RSUExampleScenario.node[143].veinsmobility 	totalTime 	334.2
scalar RSUExampleScenario.node[143].veinsmobility 	stopTime 	763.4
scalar RSUExampleScenario.node[143].veinsmobility 	minSpeed 	0.25920949062239
scalar RSUExampleScenario.node[143].veinsmobility 	maxSpeed 	13.999776137539
scalar RSUExampleScenario.node[143].veinsmobility 	totalDistance 	3410.1433892494
scalar RSUExampleScenario.node[143].veinsmobility 	totalCO2Emission 	754.73115772239
scalar RSUExampleScenario.node[144].veinsmobility 	startTime 	432.1
scalar RSUExampleScenario.node[144].veinsmobility 	totalTime 	334.9
scalar RSUExampleScenario.node[144].veinsmobility 	stopTime 	767.1
scalar RSUExampleScenario.node[144].veinsmobility 	minSpeed 	0.25182847948628
scalar RSUExampleScenario.node[144].veinsmobility 	maxSpeed 	13.999955242763
scalar RSUExampleScenario.node[144].veinsmobility 	totalDistance 	3413.7696983174
scalar RSUExampleScenario.node[144].veinsmobility 	totalCO2Emission 	757.9968332866
scalar RSUExampleScenario.node[145].veinsmobility 	startTime 	435.1
scalar RSUExampleScenario.node[145].veinsmobility 	totalTime 	335.6
scalar RSUExampleScenario.node[145].veinsmobility 	stopTime 	770.8
scalar RSUExampleScenario.node[145].veinsmobility 	minSpeed 	0.25079904855671
scalar RSUExampleScenario.node[145].veinsmobility 	maxSpeed 	13.999809033116
scalar RSUExampleScenario.node[145].veinsmobility 	totalDistance 	3410.0114146523
scalar RSUExampleScenario.node[145].veinsmobility 	totalCO2Emission 	756.14131552672
scalar RSUExampleScenario.node[146].veinsmobility 	startTime 	438.1
scalar RSUExampleScenario.node[146].veinsmobility 	totalTime 	336.3
scalar RSUExampleScenario.node[146].veinsmobility 	stopTime 	774.5
scalar RSUExampleScenario.node[146].veinsmobility 	minSpeed 	0.25914850363485
scalar RSUExampleScenario.node[146].veinsmobility 	maxSpeed 	13.99993070463
scalar RSUExampleScenario.node[146].veinsmobility 	totalDistance 	3414.1988604661
scalar RSUExampleScenario.node[146].veinsmobility 	totalCO2Emission 	755.38318635701
scalar RSUExampleScenario.node[147].veinsmobility 	startTime 	441.1
scalar RSUExampleScenario.node[147].veinsmobility 	totalTime 	337
scalar RSUExampleScenario.node[147].veinsmobility 	stopTime 	778.2
scalar RSUExampleScenario.node[147].veinsmobility 	minSpeed 	0.24879366724635
scalar RSUExampleScenario.node[147].veinsmobility 	maxSpeed 	13.999998823029
scalar RSUExampleScenario.node[147].veinsmobility 	totalDistance 	3410.1773933306
scalar RSUExampleScenario.node[147].veinsmobility 	totalCO2Emission 	761.58821111134
scalar RSUExampleScenario.node[148].veinsmobility 	startTime 	444.1
scalar RSUExampleScenario.node[148].veinsmobility 	totalTime 	337.7
scalar RSUExampleScenario.node[148].veinsmobility 	stopTime 	781.9
scalar RSUExampleScenario.node[148].veinsmobility 	minSpeed 	0.25791596161039
scalar RSUExampleScenario.node[148].veinsmobility 	maxSpeed 	13.999921683469
scalar RSUExampleScenario.node[148].veinsmobility 	totalDistance 	3413.7499422262
scalar RSUExampleScenario.node[148].veinsmobility 	totalCO2Emission 	757.053321768
scalar RSUExampleScenario.node[149].veinsmobility 	startTime 	447.1
scalar RSUExampleScenario.node[149].veinsmobility 	totalTime 	338.4
scalar RSUExampleScenario.node[149].veinsmobility 	stopTime 	785.6
scalar RSUExampleScenario.node[149].veinsmobility 	minSpeed 	0.25255035578413
scalar RSUExampleScenario.node[149].veinsmobility 	maxSpeed 	13.999891334306
scalar RSUExampleScenario.node[149].veinsmobility 	totalDistance 	3410.0663548142
scalar RSUExampleScenario.node[149].veinsmobility 	totalCO2Emission 	761.5665444739
scalar RSUExampleScenario.node[150].veinsmobility 	startTime 	450.1
scalar RSUExampleScenario.node[150].veinsmobility 	totalTime 	339
scalar RSUExampleScenario.node[150].veinsmobility 	stopTime 	789.2
scalar RSUExampleScenario.node[150].veinsmobility 	minSpeed 	0.24920794507535
scalar RSUExampleScenario.node[150].veinsmobility 	maxSpeed 	13.999775859618
scalar RSUExampleScenario.node[150].veinsmobility 	totalDistance 	3413.822460508
scalar RSUExampleScenario.node[150].veinsmobility 	totalCO2Emission 	757.86932119826
scalar RSUExampleScenario.node[151].veinsmobility 	startTime 	453.1
scalar RSUExampleScenario.node[151].veinsmobility 	totalTime 	339.7
scalar RSUExampleScenario.node[151].veinsmobility 	stopTime 	792.9
scalar RSUExampleScenario.node[151].veinsmobility 	minSpeed 	0.25313777995808
scalar RSUExampleScenario.node[151].veinsmobility 	maxSpeed 	13.999987882364
scalar RSUExampleScenario.node[151].veinsmobility 	totalDistance 	3409.5558810441
scalar RSUExampleScenario.node[151].veinsmobility 	totalCO2Emission 	757.29654242706
scalar RSUExampleScenario.node[152].veinsmobility 	startTime 	456.1
scalar RSUExampleScenario.node[152].veinsmobility 	totalTime 	340.4
scalar RSUExampleScenario.node[152].veinsmobility 	stopTime 	796.6
scalar RSUExampleScenario.node[152].veinsmobility 	minSpeed 	0.24713761997409
scalar RSUExampleScenario.node[152].veinsmobility 	maxSpeed 	13.999965480273
scalar RSUExampleScenario.node[152].veinsmobility 	totalDistance 	3413.9453462628
[...]
scalar RSUExampleScenario.node[628].veinsmobility 	totalCO2Emission 	324.55002680095
scalar RSUExampleScenario.node[629].veinsmobility 	startTime 	1887.1
scalar RSUExampleScenario.node[629].veinsmobility 	totalTime 	112.8
scalar RSUExampleScenario.node[629].veinsmobility 	stopTime 	2000
scalar RSUExampleScenario.node[629].veinsmobility 	minSpeed 	0.25456197668496
scalar RSUExampleScenario.node[629].veinsmobility 	maxSpeed 	13.999841164579
scalar RSUExampleScenario.node[629].veinsmobility 	totalDistance 	1364.2776520892
scalar RSUExampleScenario.node[629].veinsmobility 	totalCO2Emission 	315.91580001365
scalar RSUExampleScenario.node[630].veinsmobility 	startTime 	1890.1
scalar RSUExampleScenario.node[630].veinsmobility 	totalTime 	109.8
scalar RSUExampleScenario.node[630].veinsmobility 	stopTime 	2000
scalar RSUExampleScenario.node[630].veinsmobility 	minSpeed 	0.24902001075004
scalar RSUExampleScenario.node[630].veinsmobility 	maxSpeed 	13.999873292409
scalar RSUExampleScenario.node[630].veinsmobility 	totalDistance 	1322.4003719733
scalar RSUExampleScenario.node[630].veinsmobility 	totalCO2Emission 	309.39730941062
scalar RSUExampleScenario.node[631].veinsmobility 	startTime 	1893.1
scalar RSUExampleScenario.node[631].veinsmobility 	totalTime 	106.8
scalar RSUExampleScenario.node[631].veinsmobility 	stopTime 	2000
scalar RSUExampleScenario.node[631].veinsmobility 	minSpeed 	0.25655941477139
scalar RSUExampleScenario.node[631].veinsmobility 	maxSpeed 	13.999946503458
scalar RSUExampleScenario.node[631].veinsmobility 	totalDistance 	1279.3285778354
scalar RSUExampleScenario.node[631].veinsmobility 	totalCO2Emission 	304.27271329129
scalar RSUExampleScenario.node[632].veinsmobility 	startTime 	1896.1
scalar RSUExampleScenario.node[632].veinsmobility 	totalTime 	103.8
scalar RSUExampleScenario.node[632].veinsmobility 	stopTime 	2000
scalar RSUExampleScenario.node[632].veinsmobility 	minSpeed 	0.25946646329458
scalar RSUExampleScenario.node[632].veinsmobility 	maxSpeed 	13.99997485802
scalar RSUExampleScenario.node[632].veinsmobility 	totalDistance 	1236.3530705157
scalar RSUExampleScenario.node[632].veinsmobility 	totalCO2Emission 	297.0020721116
scalar RSUExampleScenario.node[633].veinsmobility 	startTime 	1899.1
scalar RSUExampleScenario.node[633].veinsmobility 	totalTime 	100.8
scalar RSUExampleScenario.node[633].veinsmobility 	stopTime 	2000
scalar RSUExampleScenario.node[633].veinsmobility 	minSpeed 	0.25811759619066
scalar RSUExampleScenario.node[633].veinsmobility 	maxSpeed 	13.999989420159
scalar RSUExampleScenario.node[633].veinsmobility 	totalDistance 	1194.4653563036
scalar RSUExampleScenario.node[633].veinsmobility 	totalCO2Emission 	287.70721900756
scalar RSUExampleScenario.node[634].veinsmobility 	startTime 	1902.1
scalar RSUExampleScenario.node[634].veinsmobility 	totalTime 	97.8
scalar RSUExampleScenario.node[634].veinsmobility 	stopTime 	2000
scalar RSUExampleScenario.node[634].veinsmobility 	minSpeed 	0.25841180677922
scalar RSUExampleScenario.node[634].veinsmobility 	maxSpeed 	13.999926143789
scalar RSUExampleScenario.node[634].veinsmobility 	totalDistance 	1152.6436619839
scalar RSUExampleScenario.node[634].veinsmobility 	totalCO2Emission 	281.68358449858
scalar RSUExampleScenario.node[635].veinsmobility 	startTime 	1905.1
scalar RSUExampleScenario.node[635].veinsmobility 	totalTime 	94.8
scalar RSUExampleScenario.node[635].veinsmobility 	stopTime 	2000
scalar RSUExampleScenario.node[635].veinsmobility 	minSpeed 	0.2513074615614
scalar RSUExampleScenario.node[635].veinsmobility 	maxSpeed 	13.999870685337
scalar RSUExampleScenario.node[635].veinsmobility 	totalDistance 	1110.6348257732
scalar RSUExampleScenario.node[635].veinsmobility 	totalCO2Emission 	273.17023264504
scalar RSUExampleScenario.node[636].veinsmobility 	startTime 	1908.1
scalar RSUExampleScenario.node[636].veinsmobility 	totalTime 	91.8
scalar RSUExampleScenario.node[636].veinsmobility 	stopTime 	2000
scalar RSUExampleScenario.node[636].veinsmobility 	minSpeed 	0.24785547153512
scalar RSUExampleScenario.node[636].veinsmobility 	maxSpeed 	13.999282059227
scalar RSUExampleScenario.node[636].veinsmobility 	totalDistance 	1071.0232557625
scalar RSUExampleScenario.node[636].veinsmobility 	totalCO2Emission 	265.44062194712
scalar RSUExampleScenario.node[637].veinsmobility 	startTime 	1911.1
scalar RSUExampleScenario.node[637].veinsmobility 	totalTime 	88.8
scalar RSUExampleScenario.node[637].veinsmobility 	stopTime 	2000
scalar RSUExampleScenario.node[637].veinsmobility 	minSpeed 	0.24965084427944
scalar RSUExampleScenario.node[637].veinsmobility 	maxSpeed 	13.999950345312
scalar RSUExampleScenario.node[637].veinsmobility 	totalDistance 	1028.835161327
scalar RSUExampleScenario.node[637].veinsmobility 	totalCO2Emission 	260.23332544426
scalar RSUExampleScenario.node[638].veinsmobility 	startTime 	1914.1
scalar RSUExampleScenario.node[638].veinsmobility 	totalTime 	85.8
scalar RSUExampleScenario.node[638].veinsmobility 	stopTime 	2000
scalar RSUExampleScenario.node[638].veinsmobility 	minSpeed 	0.24838182643498
scalar RSUExampleScenario.node[638].veinsmobility 	maxSpeed 	13.999141177533
scalar RSUExampleScenario.node[638].veinsmobility 	totalDistance 	984.61185789954
scalar RSUExampleScenario.node[638].veinsmobility 	totalCO2Emission 	249.95019382943
scalar RSUExampleScenario.node[639].veinsmobility 	startTime 	1917.1
scalar RSUExampleScenario.node[639].veinsmobility 	totalTime 	82.8
scalar RSUExampleScenario.node[639].veinsmobility 	stopTime 	2000
scalar RSUExampleScenario.node[639].veinsmobility 	minSpeed 	0.24803968855552
scalar RSUExampleScenario.node[639].veinsmobility 	maxSpeed 	13.999988799423
scalar RSUExampleScenario.node[639].veinsmobility 	totalDistance 	953.38157615676
scalar RSUExampleScenario.node[639].veinsmobility 	totalCO2Emission 	235.56529348118
scalar RSUExampleScenario.node[640].veinsmobility 	startTime 	1920.1
scalar RSUExampleScenario.node[640].veinsmobility 	totalTime 	79.8
scalar RSUExampleScenario.node[640].veinsmobility 	stopTime 	2000
scalar RSUExampleScenario.node[640].veinsmobility 	minSpeed 	0.25820092342305
scalar RSUExampleScenario.node[640].veinsmobility 	maxSpeed 	13.99977607555
scalar RSUExampleScenario.node[640].veinsmobility 	totalDistance 	936.85137120544
scalar RSUExampleScenario.node[640].veinsmobility 	totalCO2Emission 	221.99222047873
scalar RSUExampleScenario.node[641].veinsmobility 	startTime 	1923.1
scalar RSUExampleScenario.node[641].veinsmobility 	totalTime 	76.8
scalar RSUExampleScenario.node[641].veinsmobility 	stopTime 	2000
scalar RSUExampleScenario.node[641].veinsmobility 	minSpeed 	0.25406459765276
scalar RSUExampleScenario.node[641].veinsmobility 	maxSpeed 	13.999776707606
scalar RSUExampleScenario.node[641].veinsmobility 	totalDistance 	910.71264463787
scalar RSUExampleScenario.node[641].veinsmobility 	totalCO2Emission 	221.98183076473
scalar RSUExampleScenario.node[642].veinsmobility 	startTime 	1926.1
scalar RSUExampleScenario.node[642].veinsmobility 	totalTime 	73.8
scalar RSUExampleScenario.node[642].veinsmobility 	stopTime 	2000
scalar RSUExampleScenario.node[642].veinsmobility 	minSpeed 	0.25929457440879
scalar RSUExampleScenario.node[642].veinsmobility 	maxSpeed 	13.999867189142
scalar RSUExampleScenario.node[642].veinsmobility 	totalDistance 	872.24810979094
scalar RSUExampleScenario.node[642].veinsmobility 	totalCO2Emission 	213.59673826031
scalar RSUExampleScenario.node[643].veinsmobility 	startTime 	1929.1
scalar RSUExampleScenario.node[643].veinsmobility 	totalTime 	70.8
scalar RSUExampleScenario.node[643].veinsmobility 	stopTime 	2000
scalar RSUExampleScenario.node[643].veinsmobility 	minSpeed 	0.25710296671675
scalar RSUExampleScenario.node[643].veinsmobility 	maxSpeed 	13.999600339788
scalar RSUExampleScenario.node[643].veinsmobility 	totalDistance 	831.92066722474
scalar RSUExampleScenario.node[643].veinsmobility 	totalCO2Emission 	207.47339905713
scalar RSUExampleScenario.node[644].veinsmobility 	startTime 	1932.1
scalar RSUExampleScenario.node[644].veinsmobility 	totalTime 	67.8
scalar RSUExampleScenario.node[644].veinsmobility 	stopTime 	2000
scalar RSUExampleScenario.node[644].veinsmobility 	minSpeed 	0.25277834268799
scalar RSUExampleScenario.node[644].veinsmobility 	maxSpeed 	13.999889718208
scalar RSUExampleScenario.node[644].veinsmobility 	totalDistance 	789.96658066245
scalar RSUExampleScenario.node[644].veinsmobility 	totalCO2Emission 	200.0629986409
scalar RSUExampleScenario.node[645].veinsmobility 	startTime 	1935.1
scalar RSUExampleScenario.node[645].veinsmobility 	totalTime 	64.8
scalar RSUExampleScenario.node[645].veinsmobility 	stopTime 	2000
scalar RSUExampleScenario.node[645].veinsmobility 	minSpeed 	0.25984096139576
scalar RSUExampleScenario.node[645].veinsmobility 	maxSpeed 	13.999488996286
scalar RSUExampleScenario.node[645].veinsmobility 	totalDistance 	748.75755938396
scalar RSUExampleScenario.node[645].veinsmobility 	totalCO2Emission 	193.63938198296
scalar RSUExampleScenario.node[646].veinsmobility 	startTime 	1938.1
scalar RSUExampleScenario.node[646].veinsmobility 	totalTime 	61.8
scalar RSUExampleScenario.node[646].veinsmobility 	stopTime 	2000
scalar RSUExampleScenario.node[646].veinsmobility 	minSpeed 	0.25180784388585
scalar RSUExampleScenario.node[646].veinsmobility 	maxSpeed 	13.999869531249
scalar RSUExampleScenario.node[646].veinsmobility 	totalDistance 	707.84728186872
scalar RSUExampleScenario.node[646].veinsmobility 	totalCO2Emission 	186.51835896764
scalar RSUExampleScenario.node[647].veinsmobility 	startTime 	1941.1
scalar RSUExampleScenario.node[647].veinsmobility 	totalTime 	58.8
scalar RSUExampleScenario.node[647].veinsmobility 	stopTime 	2000
scalar RSUExampleScenario.node[647].veinsmobility 	minSpeed 	0.24827151672379
scalar RSUExampleScenario.node[647].veinsmobility 	maxSpeed 	13.999097566635
scalar RSUExampleScenario.node[647].veinsmobility 	totalDistance 	664.9522172888
scalar RSUExampleScenario.node[647].veinsmobility 	totalCO2Emission 	179.11088983599
scalar RSUExampleScenario.node[648].veinsmobility 	startTime 	1944.1
scalar RSUExampleScenario.node[648].veinsmobility 	totalTime 	55.8
scalar RSUExampleScenario.node[648].veinsmobility 	stopTime 	2000
scalar RSUExampleScenario.node[648].veinsmobility 	minSpeed 	0.25714323417377
scalar RSUExampleScenario.node[648].veinsmobility 	maxSpeed 	13.999322977455
scalar RSUExampleScenario.node[648].veinsmobility 	totalDistance 	623.61071533395
scalar RSUExampleScenario.node[648].veinsmobility 	totalCO2Emission 	172.28395311422
scalar RSUExampleScenario.node[649].veinsmobility 	startTime 	1947.1
scalar RSUExampleScenario.node[649].veinsmobility 	totalTime 	52.8
scalar RSUExampleScenario.node[649].veinsmobility 	stopTime 	2000
scalar RSUExampleScenario.node[649].veinsmobility 	minSpeed 	0.24733073692885
scalar RSUExampleScenario.node[649].veinsmobility 	maxSpeed 	13.999342961588
scalar RSUExampleScenario.node[649].veinsmobility 	totalDistance 	579.68387778763
scalar RSUExampleScenario.node[649].veinsmobility 	totalCO2Emission 	164.94569079909
scalar RSUExampleScenario.node[650].veinsmobility 	startTime 	1950.1
scalar RSUExampleScenario.node[650].veinsmobility 	totalTime 	49.8
scalar RSUExampleScenario.node[650].veinsmobility 	stopTime 	2000
scalar RSUExampleScenario.node[650].veinsmobility 	minSpeed 	0.25759299416421
scalar RSUExampleScenario.node[650].veinsmobility 	maxSpeed 	13.998059064094
scalar RSUExampleScenario.node[650].veinsmobility 	totalDistance 	539.29764323165
scalar RSUExampleScenario.node[650].veinsmobility 	totalCO2Emission 	157.03228514005
scalar RSUExampleScenario.node[651].veinsmobility 	startTime 	1953.1
scalar RSUExampleScenario.node[651].veinsmobility 	totalTime 	46.8
scalar RSUExampleScenario.node[651].veinsmobility 	stopTime 	2000
scalar RSUExampleScenario.node[651].veinsmobility 	minSpeed 	0.24935750503046
scalar RSUExampleScenario.node[651].veinsmobility 	maxSpeed 	13.999213655673
scalar RSUExampleScenario.node[651].veinsmobility 	totalDistance 	495.86597429207
scalar RSUExampleScenario.node[651].veinsmobility 	totalCO2Emission 	150.29589605528
scalar RSUExampleScenario.node[652].veinsmobility 	startTime 	1956.1
scalar RSUExampleScenario.node[652].veinsmobility 	totalTime 	43.8
scalar RSUExampleScenario.node[652].veinsmobility 	stopTime 	2000
scalar RSUExampleScenario.node[652].veinsmobility 	minSpeed 	0.25527713903855
scalar RSUExampleScenario.node[652].veinsmobility 	maxSpeed 	13.999283442565
scalar RSUExampleScenario.node[652].veinsmobility 	totalDistance 	454.92845048342
scalar RSUExampleScenario.node[652].veinsmobility 	totalCO2Emission 	144.52364134343
scalar RSUExampleScenario.node[653].veinsmobility 	startTime 	1959.1
scalar RSUExampleScenario.node[653].veinsmobility 	totalTime 	40.8
scalar RSUExampleScenario.node[653].veinsmobility 	stopTime 	2000
scalar RSUExampleScenario.node[653].veinsmobility 	minSpeed 	0.25110777748632
scalar RSUExampleScenario.node[653].veinsmobility 	maxSpeed 	13.997455391043
scalar RSUExampleScenario.node[653].veinsmobility 	totalDistance 	413.98018409419
scalar RSUExampleScenario.node[653].veinsmobility 	totalCO2Emission 	137.33612548515
scalar RSUExampleScenario.node[654].veinsmobility 	startTime 	1962.1
scalar RSUExampleScenario.node[654].veinsmobility 	totalTime 	37.8
scalar RSUExampleScenario.node[654].veinsmobility 	stopTime 	2000
scalar RSUExampleScenario.node[654].veinsmobility 	minSpeed 	0.25174604645791
scalar RSUExampleScenario.node[654].veinsmobility 	maxSpeed 	13.999985375176
scalar RSUExampleScenario.node[654].veinsmobility 	totalDistance 	372.89882037436
scalar RSUExampleScenario.node[654].veinsmobility 	totalCO2Emission 	129.67064222621
scalar RSUExampleScenario.node[655].veinsmobility 	startTime 	1965.1
scalar RSUExampleScenario.node[655].veinsmobility 	totalTime 	34.8
scalar RSUExampleScenario.node[655].veinsmobility 	stopTime 	2000
scalar RSUExampleScenario.node[655].veinsmobility 	minSpeed 	0.25866814749828
scalar RSUExampleScenario.node[655].veinsmobility 	maxSpeed 	13.999496305096
scalar RSUExampleScenario.node[655].veinsmobility 	totalDistance 	331.3178999776
scalar RSUExampleScenario.node[655].veinsmobility 	totalCO2Emission 	122.46031381067
scalar RSUExampleScenario.node[656].veinsmobility 	startTime 	1968.1
scalar RSUExampleScenario.node[656].veinsmobility 	totalTime 	31.8
scalar RSUExampleScenario.node[656].veinsmobility 	stopTime 	2000
scalar RSUExampleScenario.node[656].veinsmobility 	minSpeed 	0.25481607757322
scalar RSUExampleScenario.node[656].veinsmobility 	maxSpeed 	13.998212384083
scalar RSUExampleScenario.node[656].veinsmobility 	totalDistance 	288.46409480794
scalar RSUExampleScenario.node[656].veinsmobility 	totalCO2Emission 	115.1222521646
scalar RSUExampleScenario.node[657].veinsmobility 	startTime 	1971.1
scalar RSUExampleScenario.node[657].veinsmobility 	totalTime 	28.8
scalar RSUExampleScenario.node[657].veinsmobility 	stopTime 	2000
scalar RSUExampleScenario.node[657].veinsmobility 	minSpeed 	0.25426950972294
scalar RSUExampleScenario.node[657].veinsmobility 	maxSpeed 	13.88836646955
scalar RSUExampleScenario.node[657].veinsmobility 	totalDistance 	249.30058867421
scalar RSUExampleScenario.node[657].veinsmobility 	totalCO2Emission 	98.202291160879
scalar RSUExampleScenario.node[658].veinsmobility 	startTime 	1974.1
scalar RSUExampleScenario.node[658].veinsmobility 	totalTime 	25.8
scalar RSUExampleScenario.node[658].veinsmobility 	stopTime 	2000
scalar RSUExampleScenario.node[658].veinsmobility 	minSpeed 	0.2549657173208
scalar RSUExampleScenario.node[658].veinsmobility 	maxSpeed 	13.870881324334
scalar RSUExampleScenario.node[658].veinsmobility 	totalDistance 	226.06395940428
scalar RSUExampleScenario.node[658].veinsmobility 	totalCO2Emission 	82.912495706217
scalar RSUExampleScenario.node[659].veinsmobility 	startTime 	1977.1
scalar RSUExampleScenario.node[659].veinsmobility 	totalTime 	22.8
scalar RSUExampleScenario.node[659].veinsmobility 	stopTime 	2000
scalar RSUExampleScenario.node[659].veinsmobility 	minSpeed 	0.25480967216869
scalar RSUExampleScenario.node[659].veinsmobility 	maxSpeed 	13.883361019946
scalar RSUExampleScenario.node[659].veinsmobility 	totalDistance 	208.36914383734
scalar RSUExampleScenario.node[659].veinsmobility 	totalCO2Emission 	78.615526842051
scalar RSUExampleScenario.node[660].veinsmobility 	startTime 	1980.1
scalar RSUExampleScenario.node[660].veinsmobility 	totalTime 	19.8
scalar RSUExampleScenario.node[660].veinsmobility 	stopTime 	2000
scalar RSUExampleScenario.node[660].veinsmobility 	minSpeed 	0.25665105151269
scalar RSUExampleScenario.node[660].veinsmobility 	maxSpeed 	13.885219662986
scalar RSUExampleScenario.node[660].veinsmobility 	totalDistance 	175.25109133391
scalar RSUExampleScenario.node[660].veinsmobility 	totalCO2Emission 	75.253909070269
scalar RSUExampleScenario.node[661].veinsmobility 	startTime 	1983.1
scalar RSUExampleScenario.node[661].veinsmobility 	totalTime 	16.8
scalar RSUExampleScenario.node[661].veinsmobility 	stopTime 	2000
scalar RSUExampleScenario.node[661].veinsmobility 	minSpeed 	0.24715086003765
scalar RSUExampleScenario.node[661].veinsmobility 	maxSpeed 	13.875716779286
scalar RSUExampleScenario.node[661].veinsmobility 	totalDistance 	136.7898084844
scalar RSUExampleScenario.node[661].veinsmobility 	totalCO2Emission 	57.796533538793
scalar RSUExampleScenario.node[662].veinsmobility 	startTime 	1986.1
scalar RSUExampleScenario.node[662].veinsmobility 	totalTime 	13.8
scalar RSUExampleScenario.node[662].veinsmobility 	stopTime 	2000
scalar RSUExampleScenario.node[662].veinsmobility 	minSpeed 	0.25990194259305
scalar RSUExampleScenario.node[662].veinsmobility 	maxSpeed 	13.879472289197
scalar RSUExampleScenario.node[662].veinsmobility 	totalDistance 	116.87483042115
scalar RSUExampleScenario.node[662].veinsmobility 	totalCO2Emission 	43.532184298788
scalar RSUExampleScenario.node[663].veinsmobility 	startTime 	1989.1
scalar RSUExampleScenario.node[663].veinsmobility 	totalTime 	10.8
scalar RSUExampleScenario.node[663].veinsmobility 	stopTime 	2000
scalar RSUExampleScenario.node[663].veinsmobility 	minSpeed 	0.25226834628638
scalar RSUExampleScenario.node[663].veinsmobility 	maxSpeed 	13.88311106845
scalar RSUExampleScenario.node[663].veinsmobility 	totalDistance 	96.536139425895
scalar RSUExampleScenario.node[663].veinsmobility 	totalCO2Emission 	39.449242971277
scalar RSUExampleScenario.node[664].veinsmobility 	startTime 	1992.1
scalar RSUExampleScenario.node[664].veinsmobility 	totalTime 	7.8
scalar RSUExampleScenario.node[664].veinsmobility 	stopTime 	2000
scalar RSUExampleScenario.node[664].veinsmobility 	minSpeed 	0.25815131582925
scalar RSUExampleScenario.node[664].veinsmobility 	maxSpeed 	13.886557511496
scalar RSUExampleScenario.node[664].veinsmobility 	totalDistance 	62.378703460902
scalar RSUExampleScenario.node[664].veinsmobility 	totalCO2Emission 	35.911314833965
scalar RSUExampleScenario.node[665].veinsmobility 	startTime 	1995.1
scalar RSUExampleScenario.node[665].veinsmobility 	totalTime 	4.8
scalar RSUExampleScenario.node[665].veinsmobility 	stopTime 	2000
scalar RSUExampleScenario.node[665].veinsmobility 	minSpeed 	0.25579815263511
scalar RSUExampleScenario.node[665].veinsmobility 	maxSpeed 	9.7130328491267
scalar RSUExampleScenario.node[665].veinsmobility 	totalDistance 	24.500131719092
scalar RSUExampleScenario.node[665].veinsmobility 	totalCO2Emission 	18.104680290554
scalar RSUExampleScenario.node[666].veinsmobility 	startTime 	1998.1
scalar RSUExampleScenario.node[666].veinsmobility 	totalTime 	1.8
scalar RSUExampleScenario.node[666].veinsmobility 	stopTime 	2000
scalar RSUExampleScenario.node[666].veinsmobility 	minSpeed 	0.25690396758192
scalar RSUExampleScenario.node[666].veinsmobility 	maxSpeed 	3.9897084565961
scalar RSUExampleScenario.node[666].veinsmobility 	totalDistance 	3.9388023935145
scalar RSUExampleScenario.node[666].veinsmobility 	totalCO2Emission 	4.089193851634
