version 2
run statisticRVV-132-20150325-13:28:08-24404
attr c 15
attr configname statisticRVV
attr datetime 20150325-13:28:08
attr experiment statisticRVV
attr inifile omnetpp.ini
attr iterationvars "$sc=\"erlangen-medium.launchd.xml\", $p=1/15, $c=15"
attr iterationvars2 "$sc=\"erlangen-medium.launchd.xml\", $p=1/15, $c=15, $repetition=2"
attr measurement "$sc=\"erlangen-medium.launchd.xml\", $p=1/15, $c=15"
attr network RSUExampleScenario
attr p 1/15
attr processid 24404
attr repetition 2
attr replication #2
attr resultdir results
attr runnumber 132
attr sc "\"erlangen-medium.launchd.xml\""
attr seedset 132

scalar . 	c 	15
scalar RSUExampleScenario.node[0].veinsmobility 	startTime 	0.1
scalar RSUExampleScenario.node[0].veinsmobility 	totalTime 	264.3
scalar RSUExampleScenario.node[0].veinsmobility 	stopTime 	264.5
scalar RSUExampleScenario.node[0].veinsmobility 	minSpeed 	0.24984824932064
scalar RSUExampleScenario.node[0].veinsmobility 	maxSpeed 	13.999975698804
scalar RSUExampleScenario.node[0].veinsmobility 	totalDistance 	3409.523192202
scalar RSUExampleScenario.node[0].veinsmobility 	totalCO2Emission 	694.58541772681
scalar RSUExampleScenario.node[1].veinsmobility 	startTime 	3.1
scalar RSUExampleScenario.node[1].veinsmobility 	totalTime 	265.3
scalar RSUExampleScenario.node[1].veinsmobility 	stopTime 	268.5
scalar RSUExampleScenario.node[1].veinsmobility 	minSpeed 	0.25418086152128
scalar RSUExampleScenario.node[1].veinsmobility 	maxSpeed 	13.999872027056
scalar RSUExampleScenario.node[1].veinsmobility 	totalDistance 	3409.496954852
scalar RSUExampleScenario.node[1].veinsmobility 	totalCO2Emission 	694.15353500783
scalar RSUExampleScenario.node[2].veinsmobility 	startTime 	6.1
scalar RSUExampleScenario.node[2].veinsmobility 	totalTime 	265.9
scalar RSUExampleScenario.node[2].veinsmobility 	stopTime 	272.1
scalar RSUExampleScenario.node[2].veinsmobility 	minSpeed 	0.25512545786984
scalar RSUExampleScenario.node[2].veinsmobility 	maxSpeed 	13.999930664313
scalar RSUExampleScenario.node[2].veinsmobility 	totalDistance 	3409.5980099455
scalar RSUExampleScenario.node[2].veinsmobility 	totalCO2Emission 	691.53455376917
scalar RSUExampleScenario.node[3].veinsmobility 	startTime 	9.1
scalar RSUExampleScenario.node[3].veinsmobility 	totalTime 	266.2
scalar RSUExampleScenario.node[3].veinsmobility 	stopTime 	275.4
scalar RSUExampleScenario.node[3].veinsmobility 	minSpeed 	0.25345370246749
scalar RSUExampleScenario.node[3].veinsmobility 	maxSpeed 	13.999986473904
scalar RSUExampleScenario.node[3].veinsmobility 	totalDistance 	3413.5469033249
scalar RSUExampleScenario.node[3].veinsmobility 	totalCO2Emission 	692.83772039974
scalar RSUExampleScenario.node[4].veinsmobility 	startTime 	12.1
scalar RSUExampleScenario.node[4].veinsmobility 	totalTime 	266.5
scalar RSUExampleScenario.node[4].veinsmobility 	stopTime 	278.7
scalar RSUExampleScenario.node[4].veinsmobility 	minSpeed 	0.2515046197006
scalar RSUExampleScenario.node[4].veinsmobility 	maxSpeed 	13.99995427001
scalar RSUExampleScenario.node[4].veinsmobility 	totalDistance 	3409.6909868824
scalar RSUExampleScenario.node[4].veinsmobility 	totalCO2Emission 	692.09677766953
scalar RSUExampleScenario.node[5].veinsmobility 	startTime 	15.1
scalar RSUExampleScenario.node[5].veinsmobility 	totalTime 	266.6
scalar RSUExampleScenario.node[5].veinsmobility 	stopTime 	281.8
scalar RSUExampleScenario.node[5].veinsmobility 	minSpeed 	0.25963383622747
scalar RSUExampleScenario.node[5].veinsmobility 	maxSpeed 	13.999931560154
scalar RSUExampleScenario.node[5].veinsmobility 	totalDistance 	3413.7559136009
scalar RSUExampleScenario.node[5].veinsmobility 	totalCO2Emission 	692.14615794802
scalar RSUExampleScenario.node[6].veinsmobility 	startTime 	18.1
scalar RSUExampleScenario.node[6].veinsmobility 	totalTime 	266.7
scalar RSUExampleScenario.node[6].veinsmobility 	stopTime 	284.9
scalar RSUExampleScenario.node[6].veinsmobility 	minSpeed 	0.25635219103238
scalar RSUExampleScenario.node[6].veinsmobility 	maxSpeed 	13.999985565864
scalar RSUExampleScenario.node[6].veinsmobility 	totalDistance 	3409.6196388847
scalar RSUExampleScenario.node[6].veinsmobility 	totalCO2Emission 	692.12612409986
scalar RSUExampleScenario.node[7].veinsmobility 	startTime 	21.1
scalar RSUExampleScenario.node[7].veinsmobility 	totalTime 	266.8
scalar RSUExampleScenario.node[7].veinsmobility 	stopTime 	288
scalar RSUExampleScenario.node[7].veinsmobility 	minSpeed 	0.25607270865398
scalar RSUExampleScenario.node[7].veinsmobility 	maxSpeed 	13.999985892759
scalar RSUExampleScenario.node[7].veinsmobility 	totalDistance 	3414.1227021914
scalar RSUExampleScenario.node[7].veinsmobility 	totalCO2Emission 	692.6705983434
scalar RSUExampleScenario.node[8].veinsmobility 	startTime 	24.1
scalar RSUExampleScenario.node[8].veinsmobility 	totalTime 	267.1
scalar RSUExampleScenario.node[8].veinsmobility 	stopTime 	291.3
scalar RSUExampleScenario.node[8].veinsmobility 	minSpeed 	0.25972528234101
scalar RSUExampleScenario.node[8].veinsmobility 	maxSpeed 	13.999847897661
scalar RSUExampleScenario.node[8].veinsmobility 	totalDistance 	3409.9607208701
scalar RSUExampleScenario.node[8].veinsmobility 	totalCO2Emission 	689.06242669883
scalar RSUExampleScenario.node[9].veinsmobility 	startTime 	27.1
scalar RSUExampleScenario.node[9].veinsmobility 	totalTime 	267.2
scalar RSUExampleScenario.node[9].veinsmobility 	stopTime 	294.4
scalar RSUExampleScenario.node[9].veinsmobility 	minSpeed 	0.25207350650826
scalar RSUExampleScenario.node[9].veinsmobility 	maxSpeed 	13.999981983558
scalar RSUExampleScenario.node[9].veinsmobility 	totalDistance 	3414.1980452893
scalar RSUExampleScenario.node[9].veinsmobility 	totalCO2Emission 	693.4973083341
scalar RSUExampleScenario.node[10].veinsmobility 	startTime 	30.1
scalar RSUExampleScenario.node[10].veinsmobility 	totalTime 	267.2
scalar RSUExampleScenario.node[10].veinsmobility 	stopTime 	297.4
scalar RSUExampleScenario.node[10].veinsmobility 	minSpeed 	0.25311463234806
scalar RSUExampleScenario.node[10].veinsmobility 	maxSpeed 	13.999985323721
scalar RSUExampleScenario.node[10].veinsmobility 	totalDistance 	3409.177469251
scalar RSUExampleScenario.node[10].veinsmobility 	totalCO2Emission 	690.49406959771
scalar RSUExampleScenario.node[11].veinsmobility 	startTime 	33.1
scalar RSUExampleScenario.node[11].veinsmobility 	totalTime 	267.2
scalar RSUExampleScenario.node[11].veinsmobility 	stopTime 	300.4
scalar RSUExampleScenario.node[11].veinsmobility 	minSpeed 	0.24944101897394
scalar RSUExampleScenario.node[11].veinsmobility 	maxSpeed 	13.99991193061
scalar RSUExampleScenario.node[11].veinsmobility 	totalDistance 	3413.3661242699
scalar RSUExampleScenario.node[11].veinsmobility 	totalCO2Emission 	691.80198392199
scalar RSUExampleScenario.node[12].veinsmobility 	startTime 	36.1
scalar RSUExampleScenario.node[12].veinsmobility 	totalTime 	267.2
scalar RSUExampleScenario.node[12].veinsmobility 	stopTime 	303.4
scalar RSUExampleScenario.node[12].veinsmobility 	minSpeed 	0.24745747418259
scalar RSUExampleScenario.node[12].veinsmobility 	maxSpeed 	13.999876492219
scalar RSUExampleScenario.node[12].veinsmobility 	totalDistance 	3409.4703665287
scalar RSUExampleScenario.node[12].veinsmobility 	totalCO2Emission 	690.34505617023
scalar RSUExampleScenario.node[13].veinsmobility 	startTime 	39.1
scalar RSUExampleScenario.node[13].veinsmobility 	totalTime 	267.2
scalar RSUExampleScenario.node[13].veinsmobility 	stopTime 	306.4
scalar RSUExampleScenario.node[13].veinsmobility 	minSpeed 	0.25713777487678
scalar RSUExampleScenario.node[13].veinsmobility 	maxSpeed 	13.999732028642
scalar RSUExampleScenario.node[13].veinsmobility 	totalDistance 	3414.0291527467
scalar RSUExampleScenario.node[13].veinsmobility 	totalCO2Emission 	692.99804656334
scalar RSUExampleScenario.node[14].veinsmobility 	startTime 	42.1
scalar RSUExampleScenario.node[14].veinsmobility 	totalTime 	267.2
scalar RSUExampleScenario.node[14].veinsmobility 	stopTime 	309.4
scalar RSUExampleScenario.node[14].veinsmobility 	minSpeed 	0.25275321365404
scalar RSUExampleScenario.node[14].veinsmobility 	maxSpeed 	13.999993339863
scalar RSUExampleScenario.node[14].veinsmobility 	totalDistance 	3409.4355768289
scalar RSUExampleScenario.node[14].veinsmobility 	totalCO2Emission 	693.29314911813
scalar RSUExampleScenario.node[15].veinsmobility 	startTime 	45.1
scalar RSUExampleScenario.node[15].veinsmobility 	totalTime 	267.2
scalar RSUExampleScenario.node[15].veinsmobility 	stopTime 	312.4
scalar RSUExampleScenario.node[15].veinsmobility 	minSpeed 	0.25565224782657
scalar RSUExampleScenario.node[15].veinsmobility 	maxSpeed 	13.999999403812
scalar RSUExampleScenario.node[15].veinsmobility 	totalDistance 	3413.6587323191
scalar RSUExampleScenario.node[15].veinsmobility 	totalCO2Emission 	692.32786935018
scalar RSUExampleScenario.node[16].veinsmobility 	startTime 	48.1
scalar RSUExampleScenario.node[16].veinsmobility 	totalTime 	267.2
scalar RSUExampleScenario.node[16].veinsmobility 	stopTime 	315.4
scalar RSUExampleScenario.node[16].veinsmobility 	minSpeed 	0.24857736255834
scalar RSUExampleScenario.node[16].veinsmobility 	maxSpeed 	13.999894971519
scalar RSUExampleScenario.node[16].veinsmobility 	totalDistance 	3409.5569022569
scalar RSUExampleScenario.node[16].veinsmobility 	totalCO2Emission 	689.50217045424
scalar RSUExampleScenario.node[17].veinsmobility 	startTime 	51.1
scalar RSUExampleScenario.node[17].veinsmobility 	totalTime 	267.2
scalar RSUExampleScenario.node[17].veinsmobility 	stopTime 	318.4
scalar RSUExampleScenario.node[17].veinsmobility 	minSpeed 	0.25538292888319
scalar RSUExampleScenario.node[17].veinsmobility 	maxSpeed 	13.999735238077
scalar RSUExampleScenario.node[17].veinsmobility 	totalDistance 	3413.4421357848
scalar RSUExampleScenario.node[17].veinsmobility 	totalCO2Emission 	690.56608716174
scalar RSUExampleScenario.node[18].veinsmobility 	startTime 	54.1
scalar RSUExampleScenario.node[18].veinsmobility 	totalTime 	267.2
scalar RSUExampleScenario.node[18].veinsmobility 	stopTime 	321.4
scalar RSUExampleScenario.node[18].veinsmobility 	minSpeed 	0.25546670249267
scalar RSUExampleScenario.node[18].veinsmobility 	maxSpeed 	13.99993941406
scalar RSUExampleScenario.node[18].veinsmobility 	totalDistance 	3409.8734819021
scalar RSUExampleScenario.node[18].veinsmobility 	totalCO2Emission 	692.78888204153
scalar RSUExampleScenario.node[19].veinsmobility 	startTime 	57.1
scalar RSUExampleScenario.node[19].veinsmobility 	totalTime 	267.2
scalar RSUExampleScenario.node[19].veinsmobility 	stopTime 	324.4
scalar RSUExampleScenario.node[19].veinsmobility 	minSpeed 	0.25154498684523
scalar RSUExampleScenario.node[19].veinsmobility 	maxSpeed 	13.99983704553
scalar RSUExampleScenario.node[19].veinsmobility 	totalDistance 	3413.8875324217
scalar RSUExampleScenario.node[19].veinsmobility 	totalCO2Emission 	695.85763703921
scalar RSUExampleScenario.node[20].veinsmobility 	startTime 	60.1
scalar RSUExampleScenario.node[20].veinsmobility 	totalTime 	267.2
scalar RSUExampleScenario.node[20].veinsmobility 	stopTime 	327.4
scalar RSUExampleScenario.node[20].veinsmobility 	minSpeed 	0.25782985190582
scalar RSUExampleScenario.node[20].veinsmobility 	maxSpeed 	13.999811993416
scalar RSUExampleScenario.node[20].veinsmobility 	totalDistance 	3409.6655325983
scalar RSUExampleScenario.node[20].veinsmobility 	totalCO2Emission 	688.00902679076
scalar RSUExampleScenario.node[21].veinsmobility 	startTime 	63.1
scalar RSUExampleScenario.node[21].veinsmobility 	totalTime 	267.2
scalar RSUExampleScenario.node[21].veinsmobility 	stopTime 	330.4
scalar RSUExampleScenario.node[21].veinsmobility 	minSpeed 	0.25704436897789
scalar RSUExampleScenario.node[21].veinsmobility 	maxSpeed 	13.999957850743
scalar RSUExampleScenario.node[21].veinsmobility 	totalDistance 	3413.7277075529
scalar RSUExampleScenario.node[21].veinsmobility 	totalCO2Emission 	695.65065704154
scalar RSUExampleScenario.node[22].veinsmobility 	startTime 	66.1
scalar RSUExampleScenario.node[22].veinsmobility 	totalTime 	267.2
scalar RSUExampleScenario.node[22].veinsmobility 	stopTime 	333.4
scalar RSUExampleScenario.node[22].veinsmobility 	minSpeed 	0.25567655242118
scalar RSUExampleScenario.node[22].veinsmobility 	maxSpeed 	13.9999834047
scalar RSUExampleScenario.node[22].veinsmobility 	totalDistance 	3409.4431770015
scalar RSUExampleScenario.node[22].veinsmobility 	totalCO2Emission 	690.54796130672
scalar RSUExampleScenario.node[23].veinsmobility 	startTime 	69.1
scalar RSUExampleScenario.node[23].veinsmobility 	totalTime 	267.2
scalar RSUExampleScenario.node[23].veinsmobility 	stopTime 	336.4
scalar RSUExampleScenario.node[23].veinsmobility 	minSpeed 	0.25518131138617
scalar RSUExampleScenario.node[23].veinsmobility 	maxSpeed 	13.999847704279
scalar RSUExampleScenario.node[23].veinsmobility 	totalDistance 	3413.5397682034
scalar RSUExampleScenario.node[23].veinsmobility 	totalCO2Emission 	692.05212103006
scalar RSUExampleScenario.node[24].veinsmobility 	startTime 	72.1
scalar RSUExampleScenario.node[24].veinsmobility 	totalTime 	267.2
scalar RSUExampleScenario.node[24].veinsmobility 	stopTime 	339.4
scalar RSUExampleScenario.node[24].veinsmobility 	minSpeed 	0.25720081331627
scalar RSUExampleScenario.node[24].veinsmobility 	maxSpeed 	13.999899039082
scalar RSUExampleScenario.node[24].veinsmobility 	totalDistance 	3409.2841537345
scalar RSUExampleScenario.node[24].veinsmobility 	totalCO2Emission 	687.16195140495
scalar RSUExampleScenario.node[25].veinsmobility 	startTime 	75.1
scalar RSUExampleScenario.node[25].veinsmobility 	totalTime 	267.2
scalar RSUExampleScenario.node[25].veinsmobility 	stopTime 	342.4
scalar RSUExampleScenario.node[25].veinsmobility 	minSpeed 	0.25571514181513
scalar RSUExampleScenario.node[25].veinsmobility 	maxSpeed 	13.999966059208
scalar RSUExampleScenario.node[25].veinsmobility 	totalDistance 	3414.0764786991
scalar RSUExampleScenario.node[25].veinsmobility 	totalCO2Emission 	689.42552792277
scalar RSUExampleScenario.node[26].veinsmobility 	startTime 	78.1
scalar RSUExampleScenario.node[26].veinsmobility 	totalTime 	267.2
scalar RSUExampleScenario.node[26].veinsmobility 	stopTime 	345.4
scalar RSUExampleScenario.node[26].veinsmobility 	minSpeed 	0.24774239683454
scalar RSUExampleScenario.node[26].veinsmobility 	maxSpeed 	13.999980805467
scalar RSUExampleScenario.node[26].veinsmobility 	totalDistance 	3409.3125418704
scalar RSUExampleScenario.node[26].veinsmobility 	totalCO2Emission 	693.02711818875
scalar RSUExampleScenario.node[27].veinsmobility 	startTime 	81.1
scalar RSUExampleScenario.node[27].veinsmobility 	totalTime 	267.2
scalar RSUExampleScenario.node[27].veinsmobility 	stopTime 	348.4
scalar RSUExampleScenario.node[27].veinsmobility 	minSpeed 	0.25764743066975
scalar RSUExampleScenario.node[27].veinsmobility 	maxSpeed 	13.999835671061
scalar RSUExampleScenario.node[27].veinsmobility 	totalDistance 	3409.4269763289
scalar RSUExampleScenario.node[27].veinsmobility 	totalCO2Emission 	692.4036142413
scalar RSUExampleScenario.node[28].veinsmobility 	startTime 	84.1
scalar RSUExampleScenario.node[28].veinsmobility 	totalTime 	267.2
scalar RSUExampleScenario.node[28].veinsmobility 	stopTime 	351.4
scalar RSUExampleScenario.node[28].veinsmobility 	minSpeed 	0.2474494377817
scalar RSUExampleScenario.node[28].veinsmobility 	maxSpeed 	13.999874501887
scalar RSUExampleScenario.node[28].veinsmobility 	totalDistance 	3413.7321109208
scalar RSUExampleScenario.node[28].veinsmobility 	totalCO2Emission 	689.90796366006
scalar RSUExampleScenario.node[29].veinsmobility 	startTime 	87.1
scalar RSUExampleScenario.node[29].veinsmobility 	totalTime 	267.2
scalar RSUExampleScenario.node[29].veinsmobility 	stopTime 	354.4
scalar RSUExampleScenario.node[29].veinsmobility 	minSpeed 	0.2537034339786
scalar RSUExampleScenario.node[29].veinsmobility 	maxSpeed 	13.99999745307
scalar RSUExampleScenario.node[29].veinsmobility 	totalDistance 	3409.4881202859
scalar RSUExampleScenario.node[29].veinsmobility 	totalCO2Emission 	689.64117991367
scalar RSUExampleScenario.node[30].veinsmobility 	startTime 	90.1
scalar RSUExampleScenario.node[30].veinsmobility 	totalTime 	267.2
scalar RSUExampleScenario.node[30].veinsmobility 	stopTime 	357.4
scalar RSUExampleScenario.node[30].veinsmobility 	minSpeed 	0.25286869139341
scalar RSUExampleScenario.node[30].veinsmobility 	maxSpeed 	13.999878303153
scalar RSUExampleScenario.node[30].veinsmobility 	totalDistance 	3414.0960828484
scalar RSUExampleScenario.node[30].veinsmobility 	totalCO2Emission 	690.9199632189
scalar RSUExampleScenario.node[31].veinsmobility 	startTime 	93.1
scalar RSUExampleScenario.node[31].veinsmobility 	totalTime 	267.2
scalar RSUExampleScenario.node[31].veinsmobility 	stopTime 	360.4
scalar RSUExampleScenario.node[31].veinsmobility 	minSpeed 	0.25752882304229
scalar RSUExampleScenario.node[31].veinsmobility 	maxSpeed 	13.999977327525
scalar RSUExampleScenario.node[31].veinsmobility 	totalDistance 	3409.8382238957
scalar RSUExampleScenario.node[31].veinsmobility 	totalCO2Emission 	687.90625783699
scalar RSUExampleScenario.node[32].veinsmobility 	startTime 	96.1
scalar RSUExampleScenario.node[32].veinsmobility 	totalTime 	267.2
scalar RSUExampleScenario.node[32].veinsmobility 	stopTime 	363.4
scalar RSUExampleScenario.node[32].veinsmobility 	minSpeed 	0.24820398647012
scalar RSUExampleScenario.node[32].veinsmobility 	maxSpeed 	13.99990177891
scalar RSUExampleScenario.node[32].veinsmobility 	totalDistance 	3413.7321525882
scalar RSUExampleScenario.node[32].veinsmobility 	totalCO2Emission 	691.54945576003
scalar RSUExampleScenario.node[33].veinsmobility 	startTime 	99.1
scalar RSUExampleScenario.node[33].veinsmobility 	totalTime 	267.3
scalar RSUExampleScenario.node[33].veinsmobility 	stopTime 	366.5
scalar RSUExampleScenario.node[33].veinsmobility 	minSpeed 	0.25963739995565
scalar RSUExampleScenario.node[33].veinsmobility 	maxSpeed 	13.999906952919
scalar RSUExampleScenario.node[33].veinsmobility 	totalDistance 	3409.7499670599
scalar RSUExampleScenario.node[33].veinsmobility 	totalCO2Emission 	686.08147164513
scalar RSUExampleScenario.node[34].veinsmobility 	startTime 	102.1
scalar RSUExampleScenario.node[34].veinsmobility 	totalTime 	267.4
scalar RSUExampleScenario.node[34].veinsmobility 	stopTime 	369.6
scalar RSUExampleScenario.node[34].veinsmobility 	minSpeed 	0.2520092712515
scalar RSUExampleScenario.node[34].veinsmobility 	maxSpeed 	13.999981413491
scalar RSUExampleScenario.node[34].veinsmobility 	totalDistance 	3414.3036098306
scalar RSUExampleScenario.node[34].veinsmobility 	totalCO2Emission 	692.21086883609
scalar RSUExampleScenario.node[35].veinsmobility 	startTime 	105.1
scalar RSUExampleScenario.node[35].veinsmobility 	totalTime 	267.5
scalar RSUExampleScenario.node[35].veinsmobility 	stopTime 	372.7
scalar RSUExampleScenario.node[35].veinsmobility 	minSpeed 	0.25593375398894
scalar RSUExampleScenario.node[35].veinsmobility 	maxSpeed 	13.999956068292
scalar RSUExampleScenario.node[35].veinsmobility 	totalDistance 	3409.8628816963
scalar RSUExampleScenario.node[35].veinsmobility 	totalCO2Emission 	689.81735328183
scalar RSUExampleScenario.node[36].veinsmobility 	startTime 	108.1
scalar RSUExampleScenario.node[36].veinsmobility 	totalTime 	267.5
scalar RSUExampleScenario.node[36].veinsmobility 	stopTime 	375.7
scalar RSUExampleScenario.node[36].veinsmobility 	minSpeed 	0.25373877298459
scalar RSUExampleScenario.node[36].veinsmobility 	maxSpeed 	13.999948005294
scalar RSUExampleScenario.node[36].veinsmobility 	totalDistance 	3413.507659746
scalar RSUExampleScenario.node[36].veinsmobility 	totalCO2Emission 	695.05759078311
scalar RSUExampleScenario.node[37].veinsmobility 	startTime 	111.1
scalar RSUExampleScenario.node[37].veinsmobility 	totalTime 	267.6
scalar RSUExampleScenario.node[37].veinsmobility 	stopTime 	378.8
scalar RSUExampleScenario.node[37].veinsmobility 	minSpeed 	0.25597049510176
scalar RSUExampleScenario.node[37].veinsmobility 	maxSpeed 	13.999967153366
scalar RSUExampleScenario.node[37].veinsmobility 	totalDistance 	3409.7519561036
scalar RSUExampleScenario.node[37].veinsmobility 	totalCO2Emission 	693.88241200006
scalar RSUExampleScenario.node[38].veinsmobility 	startTime 	114.1
scalar RSUExampleScenario.node[38].veinsmobility 	totalTime 	267.7
scalar RSUExampleScenario.node[38].veinsmobility 	stopTime 	381.9
scalar RSUExampleScenario.node[38].veinsmobility 	minSpeed 	0.24970394954458
scalar RSUExampleScenario.node[38].veinsmobility 	maxSpeed 	13.999962682633
scalar RSUExampleScenario.node[38].veinsmobility 	totalDistance 	3413.9717579623
scalar RSUExampleScenario.node[38].veinsmobility 	totalCO2Emission 	692.50634185614
scalar RSUExampleScenario.node[39].veinsmobility 	startTime 	117.1
scalar RSUExampleScenario.node[39].veinsmobility 	totalTime 	267.9
scalar RSUExampleScenario.node[39].veinsmobility 	stopTime 	385.1
scalar RSUExampleScenario.node[39].veinsmobility 	minSpeed 	0.25674093714217
scalar RSUExampleScenario.node[39].veinsmobility 	maxSpeed 	13.999890803255
scalar RSUExampleScenario.node[39].veinsmobility 	totalDistance 	3409.8725875032
scalar RSUExampleScenario.node[39].veinsmobility 	totalCO2Emission 	690.29640977775
scalar RSUExampleScenario.node[40].veinsmobility 	startTime 	120.1
scalar RSUExampleScenario.node[40].veinsmobility 	totalTime 	268.1
scalar RSUExampleScenario.node[40].veinsmobility 	stopTime 	388.3
scalar RSUExampleScenario.node[40].veinsmobility 	minSpeed 	0.24850855395454
scalar RSUExampleScenario.node[40].veinsmobility 	maxSpeed 	13.999990765299
scalar RSUExampleScenario.node[40].veinsmobility 	totalDistance 	3413.4255792817
scalar RSUExampleScenario.node[40].veinsmobility 	totalCO2Emission 	692.07479771155
scalar RSUExampleScenario.node[41].veinsmobility 	startTime 	123.1
scalar RSUExampleScenario.node[41].veinsmobility 	totalTime 	268.3
scalar RSUExampleScenario.node[41].veinsmobility 	stopTime 	391.5
scalar RSUExampleScenario.node[41].veinsmobility 	minSpeed 	0.25518582436373
scalar RSUExampleScenario.node[41].veinsmobility 	maxSpeed 	13.999967786905
scalar RSUExampleScenario.node[41].veinsmobility 	totalDistance 	3409.6683920526
scalar RSUExampleScenario.node[41].veinsmobility 	totalCO2Emission 	692.67156829696
scalar RSUExampleScenario.node[42].veinsmobility 	startTime 	126.1
scalar RSUExampleScenario.node[42].veinsmobility 	totalTime 	268.6
scalar RSUExampleScenario.node[42].veinsmobility 	stopTime 	394.8
scalar RSUExampleScenario.node[42].veinsmobility 	minSpeed 	0.25920383751346
scalar RSUExampleScenario.node[42].veinsmobility 	maxSpeed 	13.999992956822
scalar RSUExampleScenario.node[42].veinsmobility 	totalDistance 	3413.827226814
scalar RSUExampleScenario.node[42].veinsmobility 	totalCO2Emission 	691.39198094225
scalar RSUExampleScenario.node[43].veinsmobility 	startTime 	129.1
scalar RSUExampleScenario.node[43].veinsmobility 	totalTime 	268.9
scalar RSUExampleScenario.node[43].veinsmobility 	stopTime 	398.1
scalar RSUExampleScenario.node[43].veinsmobility 	minSpeed 	0.24733182532014
scalar RSUExampleScenario.node[43].veinsmobility 	maxSpeed 	13.999853782877
scalar RSUExampleScenario.node[43].veinsmobility 	totalDistance 	3409.4558349933
scalar RSUExampleScenario.node[43].veinsmobility 	totalCO2Emission 	690.57191887812
scalar RSUExampleScenario.node[44].veinsmobility 	startTime 	132.1
scalar RSUExampleScenario.node[44].veinsmobility 	totalTime 	269.3
scalar RSUExampleScenario.node[44].veinsmobility 	stopTime 	401.5
scalar RSUExampleScenario.node[44].veinsmobility 	minSpeed 	0.24777496061451
scalar RSUExampleScenario.node[44].veinsmobility 	maxSpeed 	13.9999226798
scalar RSUExampleScenario.node[44].veinsmobility 	totalDistance 	3414.0022177783
scalar RSUExampleScenario.node[44].veinsmobility 	totalCO2Emission 	691.36474398293
scalar RSUExampleScenario.node[45].veinsmobility 	startTime 	135.1
scalar RSUExampleScenario.node[45].veinsmobility 	totalTime 	269.7
scalar RSUExampleScenario.node[45].veinsmobility 	stopTime 	404.9
scalar RSUExampleScenario.node[45].veinsmobility 	minSpeed 	0.25051617490803
scalar RSUExampleScenario.node[45].veinsmobility 	maxSpeed 	13.99999588643
scalar RSUExampleScenario.node[45].veinsmobility 	totalDistance 	3409.4071018187
scalar RSUExampleScenario.node[45].veinsmobility 	totalCO2Emission 	690.57474656398
scalar RSUExampleScenario.node[46].veinsmobility 	startTime 	138.1
scalar RSUExampleScenario.node[46].veinsmobility 	totalTime 	270.2
scalar RSUExampleScenario.node[46].veinsmobility 	stopTime 	408.4
scalar RSUExampleScenario.node[46].veinsmobility 	minSpeed 	0.24952304487675
scalar RSUExampleScenario.node[46].veinsmobility 	maxSpeed 	13.999990367487
scalar RSUExampleScenario.node[46].veinsmobility 	totalDistance 	3409.8583529283
scalar RSUExampleScenario.node[46].veinsmobility 	totalCO2Emission 	691.16812091187
scalar RSUExampleScenario.node[47].veinsmobility 	startTime 	141.1
scalar RSUExampleScenario.node[47].veinsmobility 	totalTime 	270.8
scalar RSUExampleScenario.node[47].veinsmobility 	stopTime 	412
scalar RSUExampleScenario.node[47].veinsmobility 	minSpeed 	0.24933190577431
scalar RSUExampleScenario.node[47].veinsmobility 	maxSpeed 	13.999897313383
scalar RSUExampleScenario.node[47].veinsmobility 	totalDistance 	3414.2596307265
scalar RSUExampleScenario.node[47].veinsmobility 	totalCO2Emission 	691.11940041635
scalar RSUExampleScenario.node[48].veinsmobility 	startTime 	144.1
scalar RSUExampleScenario.node[48].veinsmobility 	totalTime 	271.4
scalar RSUExampleScenario.node[48].veinsmobility 	stopTime 	415.6
scalar RSUExampleScenario.node[48].veinsmobility 	minSpeed 	0.25952070559165
scalar RSUExampleScenario.node[48].veinsmobility 	maxSpeed 	13.999972579023
scalar RSUExampleScenario.node[48].veinsmobility 	totalDistance 	3410.0203554668
scalar RSUExampleScenario.node[48].veinsmobility 	totalCO2Emission 	693.62784787457
scalar RSUExampleScenario.node[49].veinsmobility 	startTime 	147.1
scalar RSUExampleScenario.node[49].veinsmobility 	totalTime 	272.1
scalar RSUExampleScenario.node[49].veinsmobility 	stopTime 	419.3
scalar RSUExampleScenario.node[49].veinsmobility 	minSpeed 	0.25802352756215
scalar RSUExampleScenario.node[49].veinsmobility 	maxSpeed 	13.999758162473
scalar RSUExampleScenario.node[49].veinsmobility 	totalDistance 	3414.2682981503
scalar RSUExampleScenario.node[49].veinsmobility 	totalCO2Emission 	695.92374678837
scalar RSUExampleScenario.node[50].veinsmobility 	startTime 	150.1
scalar RSUExampleScenario.node[50].veinsmobility 	totalTime 	272.9
scalar RSUExampleScenario.node[50].veinsmobility 	stopTime 	423.1
scalar RSUExampleScenario.node[50].veinsmobility 	minSpeed 	0.24938542885263
scalar RSUExampleScenario.node[50].veinsmobility 	maxSpeed 	13.999993995286
scalar RSUExampleScenario.node[50].veinsmobility 	totalDistance 	3410.1100490445
scalar RSUExampleScenario.node[50].veinsmobility 	totalCO2Emission 	692.55478283217
scalar RSUExampleScenario.node[51].veinsmobility 	startTime 	153.1
scalar RSUExampleScenario.node[51].veinsmobility 	totalTime 	273.6
scalar RSUExampleScenario.node[51].veinsmobility 	stopTime 	426.8
scalar RSUExampleScenario.node[51].veinsmobility 	minSpeed 	0.25407347978349
scalar RSUExampleScenario.node[51].veinsmobility 	maxSpeed 	13.999974560093
scalar RSUExampleScenario.node[51].veinsmobility 	totalDistance 	3414.1684412997
scalar RSUExampleScenario.node[51].veinsmobility 	totalCO2Emission 	693.80519107941
scalar RSUExampleScenario.node[52].veinsmobility 	startTime 	156.1
scalar RSUExampleScenario.node[52].veinsmobility 	totalTime 	274.3
scalar RSUExampleScenario.node[52].veinsmobility 	stopTime 	430.5
scalar RSUExampleScenario.node[52].veinsmobility 	minSpeed 	0.25730677464115
scalar RSUExampleScenario.node[52].veinsmobility 	maxSpeed 	13.999972752701
scalar RSUExampleScenario.node[52].veinsmobility 	totalDistance 	3409.4899142997
scalar RSUExampleScenario.node[52].veinsmobility 	totalCO2Emission 	700.58291347218
scalar RSUExampleScenario.node[53].veinsmobility 	startTime 	159.1
scalar RSUExampleScenario.node[53].veinsmobility 	totalTime 	274.9
scalar RSUExampleScenario.node[53].veinsmobility 	stopTime 	434.1
scalar RSUExampleScenario.node[53].veinsmobility 	minSpeed 	0.24941721921903
scalar RSUExampleScenario.node[53].veinsmobility 	maxSpeed 	13.999902745881
scalar RSUExampleScenario.node[53].veinsmobility 	totalDistance 	3413.4731828182
scalar RSUExampleScenario.node[53].veinsmobility 	totalCO2Emission 	697.09340693162
scalar RSUExampleScenario.node[54].veinsmobility 	startTime 	162.1
scalar RSUExampleScenario.node[54].veinsmobility 	totalTime 	275.6
scalar RSUExampleScenario.node[54].veinsmobility 	stopTime 	437.8
scalar RSUExampleScenario.node[54].veinsmobility 	minSpeed 	0.25710859503923
scalar RSUExampleScenario.node[54].veinsmobility 	maxSpeed 	13.999945877274
scalar RSUExampleScenario.node[54].veinsmobility 	totalDistance 	3409.5697744323
scalar RSUExampleScenario.node[54].veinsmobility 	totalCO2Emission 	697.09901044763
scalar RSUExampleScenario.node[55].veinsmobility 	startTime 	165.1
scalar RSUExampleScenario.node[55].veinsmobility 	totalTime 	276.3
scalar RSUExampleScenario.node[55].veinsmobility 	stopTime 	441.5
scalar RSUExampleScenario.node[55].veinsmobility 	minSpeed 	0.2478240731603
scalar RSUExampleScenario.node[55].veinsmobility 	maxSpeed 	13.999969093604
scalar RSUExampleScenario.node[55].veinsmobility 	totalDistance 	3413.9428825438
scalar RSUExampleScenario.node[55].veinsmobility 	totalCO2Emission 	695.77534697568
scalar RSUExampleScenario.node[56].veinsmobility 	startTime 	168.1
scalar RSUExampleScenario.node[56].veinsmobility 	totalTime 	277
scalar RSUExampleScenario.node[56].veinsmobility 	stopTime 	445.2
scalar RSUExampleScenario.node[56].veinsmobility 	minSpeed 	0.25021521502826
scalar RSUExampleScenario.node[56].veinsmobility 	maxSpeed 	13.999897530738
scalar RSUExampleScenario.node[56].veinsmobility 	totalDistance 	3409.7195917371
scalar RSUExampleScenario.node[56].veinsmobility 	totalCO2Emission 	699.38171612533
scalar RSUExampleScenario.node[57].veinsmobility 	startTime 	171.1
scalar RSUExampleScenario.node[57].veinsmobility 	totalTime 	277.7
scalar RSUExampleScenario.node[57].veinsmobility 	stopTime 	448.9
scalar RSUExampleScenario.node[57].veinsmobility 	minSpeed 	0.2583101976302
scalar RSUExampleScenario.node[57].veinsmobility 	maxSpeed 	13.999947478026
scalar RSUExampleScenario.node[57].veinsmobility 	totalDistance 	3409.8583680478
scalar RSUExampleScenario.node[57].veinsmobility 	totalCO2Emission 	700.51312825669
scalar RSUExampleScenario.node[58].veinsmobility 	startTime 	174.1
scalar RSUExampleScenario.node[58].veinsmobility 	totalTime 	278.5
scalar RSUExampleScenario.node[58].veinsmobility 	stopTime 	452.7
scalar RSUExampleScenario.node[58].veinsmobility 	minSpeed 	0.25734680743353
scalar RSUExampleScenario.node[58].veinsmobility 	maxSpeed 	13.999727981752
scalar RSUExampleScenario.node[58].veinsmobility 	totalDistance 	3414.0722526862
scalar RSUExampleScenario.node[58].veinsmobility 	totalCO2Emission 	698.4410714708
scalar RSUExampleScenario.node[59].veinsmobility 	startTime 	177.1
scalar RSUExampleScenario.node[59].veinsmobility 	totalTime 	279.2
scalar RSUExampleScenario.node[59].veinsmobility 	stopTime 	456.4
scalar RSUExampleScenario.node[59].veinsmobility 	minSpeed 	0.25171760931797
scalar RSUExampleScenario.node[59].veinsmobility 	maxSpeed 	13.999898483725
scalar RSUExampleScenario.node[59].veinsmobility 	totalDistance 	3409.9608002755
scalar RSUExampleScenario.node[59].veinsmobility 	totalCO2Emission 	701.87313784697
scalar RSUExampleScenario.node[60].veinsmobility 	startTime 	180.1
scalar RSUExampleScenario.node[60].veinsmobility 	totalTime 	279.9
scalar RSUExampleScenario.node[60].veinsmobility 	stopTime 	460.1
scalar RSUExampleScenario.node[60].veinsmobility 	minSpeed 	0.25311115089431
scalar RSUExampleScenario.node[60].veinsmobility 	maxSpeed 	13.999837955446
scalar RSUExampleScenario.node[60].veinsmobility 	totalDistance 	3413.7722163432
scalar RSUExampleScenario.node[60].veinsmobility 	totalCO2Emission 	700.18760195616
scalar RSUExampleScenario.node[61].veinsmobility 	startTime 	183.1
scalar RSUExampleScenario.node[61].veinsmobility 	totalTime 	280.5
scalar RSUExampleScenario.node[61].veinsmobility 	stopTime 	463.7
scalar RSUExampleScenario.node[61].veinsmobility 	minSpeed 	0.25060048337094
scalar RSUExampleScenario.node[61].veinsmobility 	maxSpeed 	13.999992159472
scalar RSUExampleScenario.node[61].veinsmobility 	totalDistance 	3409.9808522423
scalar RSUExampleScenario.node[61].veinsmobility 	totalCO2Emission 	701.83306531681
scalar RSUExampleScenario.node[62].veinsmobility 	startTime 	186.1
scalar RSUExampleScenario.node[62].veinsmobility 	totalTime 	281.3
scalar RSUExampleScenario.node[62].veinsmobility 	stopTime 	467.5
scalar RSUExampleScenario.node[62].veinsmobility 	minSpeed 	0.25169987634756
scalar RSUExampleScenario.node[62].veinsmobility 	maxSpeed 	13.999874447042
scalar RSUExampleScenario.node[62].veinsmobility 	totalDistance 	3414.1202366273
scalar RSUExampleScenario.node[62].veinsmobility 	totalCO2Emission 	705.06323169283
scalar RSUExampleScenario.node[63].veinsmobility 	startTime 	189.1
scalar RSUExampleScenario.node[63].veinsmobility 	totalTime 	282
scalar RSUExampleScenario.node[63].veinsmobility 	stopTime 	471.2
scalar RSUExampleScenario.node[63].veinsmobility 	minSpeed 	0.24947731306194
scalar RSUExampleScenario.node[63].veinsmobility 	maxSpeed 	13.999903904328
scalar RSUExampleScenario.node[63].veinsmobility 	totalDistance 	3409.7425803379
scalar RSUExampleScenario.node[63].veinsmobility 	totalCO2Emission 	700.59773772904
scalar RSUExampleScenario.node[64].veinsmobility 	startTime 	192.1
scalar RSUExampleScenario.node[64].veinsmobility 	totalTime 	282.7
scalar RSUExampleScenario.node[64].veinsmobility 	stopTime 	474.9
scalar RSUExampleScenario.node[64].veinsmobility 	minSpeed 	0.2510273946235
scalar RSUExampleScenario.node[64].veinsmobility 	maxSpeed 	13.999997905183
scalar RSUExampleScenario.node[64].veinsmobility 	totalDistance 	3414.3056190713
scalar RSUExampleScenario.node[64].veinsmobility 	totalCO2Emission 	705.09832317451
scalar RSUExampleScenario.node[65].veinsmobility 	startTime 	195.1
scalar RSUExampleScenario.node[65].veinsmobility 	totalTime 	283.4
scalar RSUExampleScenario.node[65].veinsmobility 	stopTime 	478.6
scalar RSUExampleScenario.node[65].veinsmobility 	minSpeed 	0.24743756982638
scalar RSUExampleScenario.node[65].veinsmobility 	maxSpeed 	13.999946456875
scalar RSUExampleScenario.node[65].veinsmobility 	totalDistance 	3410.1705266
scalar RSUExampleScenario.node[65].veinsmobility 	totalCO2Emission 	705.73060057196
scalar RSUExampleScenario.node[66].veinsmobility 	startTime 	198.1
scalar RSUExampleScenario.node[66].veinsmobility 	totalTime 	284
scalar RSUExampleScenario.node[66].veinsmobility 	stopTime 	482.2
scalar RSUExampleScenario.node[66].veinsmobility 	minSpeed 	0.25542061008024
scalar RSUExampleScenario.node[66].veinsmobility 	maxSpeed 	13.999982570636
scalar RSUExampleScenario.node[66].veinsmobility 	totalDistance 	3413.8220452992
scalar RSUExampleScenario.node[66].veinsmobility 	totalCO2Emission 	706.97889134869
scalar RSUExampleScenario.node[67].veinsmobility 	startTime 	201.1
scalar RSUExampleScenario.node[67].veinsmobility 	totalTime 	284.7
scalar RSUExampleScenario.node[67].veinsmobility 	stopTime 	485.9
scalar RSUExampleScenario.node[67].veinsmobility 	minSpeed 	0.25449808416772
scalar RSUExampleScenario.node[67].veinsmobility 	maxSpeed 	13.999865642751
scalar RSUExampleScenario.node[67].veinsmobility 	totalDistance 	3409.7149343222
scalar RSUExampleScenario.node[67].veinsmobility 	totalCO2Emission 	705.62547900897
scalar RSUExampleScenario.node[68].veinsmobility 	startTime 	204.1
scalar RSUExampleScenario.node[68].veinsmobility 	totalTime 	285.4
scalar RSUExampleScenario.node[68].veinsmobility 	stopTime 	489.6
scalar RSUExampleScenario.node[68].veinsmobility 	minSpeed 	0.25153567675245
scalar RSUExampleScenario.node[68].veinsmobility 	maxSpeed 	13.999772666951
scalar RSUExampleScenario.node[68].veinsmobility 	totalDistance 	3413.8390163222
scalar RSUExampleScenario.node[68].veinsmobility 	totalCO2Emission 	706.93588617993
scalar RSUExampleScenario.node[69].veinsmobility 	startTime 	207.1
scalar RSUExampleScenario.node[69].veinsmobility 	totalTime 	286.1
scalar RSUExampleScenario.node[69].veinsmobility 	stopTime 	493.3
scalar RSUExampleScenario.node[69].veinsmobility 	minSpeed 	0.25666121122171
scalar RSUExampleScenario.node[69].veinsmobility 	maxSpeed 	13.999919041982
scalar RSUExampleScenario.node[69].veinsmobility 	totalDistance 	3410.0958332264
scalar RSUExampleScenario.node[69].veinsmobility 	totalCO2Emission 	711.34045148513
scalar RSUExampleScenario.node[70].veinsmobility 	startTime 	210.1
scalar RSUExampleScenario.node[70].veinsmobility 	totalTime 	286.9
scalar RSUExampleScenario.node[70].veinsmobility 	stopTime 	497.1
scalar RSUExampleScenario.node[70].veinsmobility 	minSpeed 	0.25435529671633
scalar RSUExampleScenario.node[70].veinsmobility 	maxSpeed 	13.999928746624
scalar RSUExampleScenario.node[70].veinsmobility 	totalDistance 	3410.0298822094
scalar RSUExampleScenario.node[70].veinsmobility 	totalCO2Emission 	706.55629460761
scalar RSUExampleScenario.node[71].veinsmobility 	startTime 	213.1
scalar RSUExampleScenario.node[71].veinsmobility 	totalTime 	287.6
scalar RSUExampleScenario.node[71].veinsmobility 	stopTime 	500.8
scalar RSUExampleScenario.node[71].veinsmobility 	minSpeed 	0.25052553671668
scalar RSUExampleScenario.node[71].veinsmobility 	maxSpeed 	13.999955535454
scalar RSUExampleScenario.node[71].veinsmobility 	totalDistance 	3413.9447605801
scalar RSUExampleScenario.node[71].veinsmobility 	totalCO2Emission 	703.70314498875
scalar RSUExampleScenario.node[72].veinsmobility 	startTime 	216.1
scalar RSUExampleScenario.node[72].veinsmobility 	totalTime 	288.4
scalar RSUExampleScenario.node[72].veinsmobility 	stopTime 	504.6
scalar RSUExampleScenario.node[72].veinsmobility 	minSpeed 	0.25841491951747
scalar RSUExampleScenario.node[72].veinsmobility 	maxSpeed 	13.999996002356
scalar RSUExampleScenario.node[72].veinsmobility 	totalDistance 	3409.9604353873
scalar RSUExampleScenario.node[72].veinsmobility 	totalCO2Emission 	709.8901669448
scalar RSUExampleScenario.node[73].veinsmobility 	startTime 	219.1
scalar RSUExampleScenario.node[73].veinsmobility 	totalTime 	289.1
scalar RSUExampleScenario.node[73].veinsmobility 	stopTime 	508.3
scalar RSUExampleScenario.node[73].veinsmobility 	minSpeed 	0.25725377505063
scalar RSUExampleScenario.node[73].veinsmobility 	maxSpeed 	13.999868252669
scalar RSUExampleScenario.node[73].veinsmobility 	totalDistance 	3413.659086367
scalar RSUExampleScenario.node[73].veinsmobility 	totalCO2Emission 	714.73723701096
scalar RSUExampleScenario.node[74].veinsmobility 	startTime 	222.1
scalar RSUExampleScenario.node[74].veinsmobility 	totalTime 	289.8
scalar RSUExampleScenario.node[74].veinsmobility 	stopTime 	512
scalar RSUExampleScenario.node[74].veinsmobility 	minSpeed 	0.25566572893225
scalar RSUExampleScenario.node[74].veinsmobility 	maxSpeed 	13.999951923485
scalar RSUExampleScenario.node[74].veinsmobility 	totalDistance 	3409.823928896
scalar RSUExampleScenario.node[74].veinsmobility 	totalCO2Emission 	712.05279764629
scalar RSUExampleScenario.node[75].veinsmobility 	startTime 	225.1
scalar RSUExampleScenario.node[75].veinsmobility 	totalTime 	290.6
scalar RSUExampleScenario.node[75].veinsmobility 	stopTime 	515.8
scalar RSUExampleScenario.node[75].veinsmobility 	minSpeed 	0.25026957302168
scalar RSUExampleScenario.node[75].veinsmobility 	maxSpeed 	13.999981532807
scalar RSUExampleScenario.node[75].veinsmobility 	totalDistance 	3414.2154360586
scalar RSUExampleScenario.node[75].veinsmobility 	totalCO2Emission 	710.60439820864
scalar RSUExampleScenario.node[76].veinsmobility 	startTime 	228.1
scalar RSUExampleScenario.node[76].veinsmobility 	totalTime 	291.3
scalar RSUExampleScenario.node[76].veinsmobility 	stopTime 	519.5
scalar RSUExampleScenario.node[76].veinsmobility 	minSpeed 	0.24844978836761
scalar RSUExampleScenario.node[76].veinsmobility 	maxSpeed 	13.999966912977
scalar RSUExampleScenario.node[76].veinsmobility 	totalDistance 	3409.6233381361
scalar RSUExampleScenario.node[76].veinsmobility 	totalCO2Emission 	713.56082531656
scalar RSUExampleScenario.node[77].veinsmobility 	startTime 	231.1
scalar RSUExampleScenario.node[77].veinsmobility 	totalTime 	292
scalar RSUExampleScenario.node[77].veinsmobility 	stopTime 	523.2
scalar RSUExampleScenario.node[77].veinsmobility 	minSpeed 	0.24895737844938
scalar RSUExampleScenario.node[77].veinsmobility 	maxSpeed 	13.999934392269
scalar RSUExampleScenario.node[77].veinsmobility 	totalDistance 	3414.1496876285
scalar RSUExampleScenario.node[77].veinsmobility 	totalCO2Emission 	710.99100921767
scalar RSUExampleScenario.node[78].veinsmobility 	startTime 	234.1
scalar RSUExampleScenario.node[78].veinsmobility 	totalTime 	292.7
scalar RSUExampleScenario.node[78].veinsmobility 	stopTime 	526.9
scalar RSUExampleScenario.node[78].veinsmobility 	minSpeed 	0.24803980845306
scalar RSUExampleScenario.node[78].veinsmobility 	maxSpeed 	13.99975183035
scalar RSUExampleScenario.node[78].veinsmobility 	totalDistance 	3409.6526912541
scalar RSUExampleScenario.node[78].veinsmobility 	totalCO2Emission 	717.65550629997
scalar RSUExampleScenario.node[79].veinsmobility 	startTime 	237.1
scalar RSUExampleScenario.node[79].veinsmobility 	totalTime 	293.4
scalar RSUExampleScenario.node[79].veinsmobility 	stopTime 	530.6
scalar RSUExampleScenario.node[79].veinsmobility 	minSpeed 	0.2481848498371
scalar RSUExampleScenario.node[79].veinsmobility 	maxSpeed 	13.999792757144
scalar RSUExampleScenario.node[79].veinsmobility 	totalDistance 	3414.0254606156
scalar RSUExampleScenario.node[79].veinsmobility 	totalCO2Emission 	715.00982404597
scalar RSUExampleScenario.node[80].veinsmobility 	startTime 	240.1
scalar RSUExampleScenario.node[80].veinsmobility 	totalTime 	294.1
scalar RSUExampleScenario.node[80].veinsmobility 	stopTime 	534.3
scalar RSUExampleScenario.node[80].veinsmobility 	minSpeed 	0.25792663431331
scalar RSUExampleScenario.node[80].veinsmobility 	maxSpeed 	13.99991569967
scalar RSUExampleScenario.node[80].veinsmobility 	totalDistance 	3409.5897879118
scalar RSUExampleScenario.node[80].veinsmobility 	totalCO2Emission 	711.94521652987
scalar RSUExampleScenario.node[81].veinsmobility 	startTime 	243.1
scalar RSUExampleScenario.node[81].veinsmobility 	totalTime 	294.7
scalar RSUExampleScenario.node[81].veinsmobility 	stopTime 	537.9
scalar RSUExampleScenario.node[81].veinsmobility 	minSpeed 	0.247963592296
scalar RSUExampleScenario.node[81].veinsmobility 	maxSpeed 	13.999995776527
scalar RSUExampleScenario.node[81].veinsmobility 	totalDistance 	3413.727375383
scalar RSUExampleScenario.node[81].veinsmobility 	totalCO2Emission 	719.04431355763
scalar RSUExampleScenario.node[82].veinsmobility 	startTime 	246.1
scalar RSUExampleScenario.node[82].veinsmobility 	totalTime 	295.4
scalar RSUExampleScenario.node[82].veinsmobility 	stopTime 	541.6
scalar RSUExampleScenario.node[82].veinsmobility 	minSpeed 	0.25411373933451
scalar RSUExampleScenario.node[82].veinsmobility 	maxSpeed 	13.999968388693
scalar RSUExampleScenario.node[82].veinsmobility 	totalDistance 	3409.9845986408
scalar RSUExampleScenario.node[82].veinsmobility 	totalCO2Emission 	718.47437483869
scalar RSUExampleScenario.node[83].veinsmobility 	startTime 	249.1
scalar RSUExampleScenario.node[83].veinsmobility 	totalTime 	296.1
scalar RSUExampleScenario.node[83].veinsmobility 	stopTime 	545.3
scalar RSUExampleScenario.node[83].veinsmobility 	minSpeed 	0.24789783616085
scalar RSUExampleScenario.node[83].veinsmobility 	maxSpeed 	13.999995959497
scalar RSUExampleScenario.node[83].veinsmobility 	totalDistance 	3409.7879488507
scalar RSUExampleScenario.node[83].veinsmobility 	totalCO2Emission 	714.49371398096
scalar RSUExampleScenario.node[84].veinsmobility 	startTime 	252.1
scalar RSUExampleScenario.node[84].veinsmobility 	totalTime 	296.8
scalar RSUExampleScenario.node[84].veinsmobility 	stopTime 	549
scalar RSUExampleScenario.node[84].veinsmobility 	minSpeed 	0.25826807849598
scalar RSUExampleScenario.node[84].veinsmobility 	maxSpeed 	13.999722790217
scalar RSUExampleScenario.node[84].veinsmobility 	totalDistance 	3413.8865009868
scalar RSUExampleScenario.node[84].veinsmobility 	totalCO2Emission 	715.19466878537
scalar RSUExampleScenario.node[85].veinsmobility 	startTime 	255.1
scalar RSUExampleScenario.node[85].veinsmobility 	totalTime 	297.5
scalar RSUExampleScenario.node[85].veinsmobility 	stopTime 	552.7
scalar RSUExampleScenario.node[85].veinsmobility 	minSpeed 	0.25032660217374
scalar RSUExampleScenario.node[85].veinsmobility 	maxSpeed 	13.999787400921
scalar RSUExampleScenario.node[85].veinsmobility 	totalDistance 	3409.6081994527
scalar RSUExampleScenario.node[85].veinsmobility 	totalCO2Emission 	720.49892243519
scalar RSUExampleScenario.node[86].veinsmobility 	startTime 	258.1
scalar RSUExampleScenario.node[86].veinsmobility 	totalTime 	298.2
scalar RSUExampleScenario.node[86].veinsmobility 	stopTime 	556.4
scalar RSUExampleScenario.node[86].veinsmobility 	minSpeed 	0.25386039785785
scalar RSUExampleScenario.node[86].veinsmobility 	maxSpeed 	13.999982764199
scalar RSUExampleScenario.node[86].veinsmobility 	totalDistance 	3413.6811970626
scalar RSUExampleScenario.node[86].veinsmobility 	totalCO2Emission 	720.31056714559
scalar RSUExampleScenario.node[87].veinsmobility 	startTime 	261.1
scalar RSUExampleScenario.node[87].veinsmobility 	totalTime 	298.9
scalar RSUExampleScenario.node[87].veinsmobility 	stopTime 	560.1
scalar RSUExampleScenario.node[87].veinsmobility 	minSpeed 	0.24706946623628
scalar RSUExampleScenario.node[87].veinsmobility 	maxSpeed 	13.999988493414
scalar RSUExampleScenario.node[87].veinsmobility 	totalDistance 	3409.9505414248
scalar RSUExampleScenario.node[87].veinsmobility 	totalCO2Emission 	722.85877241527
scalar RSUExampleScenario.node[88].veinsmobility 	startTime 	264.1
scalar RSUExampleScenario.node[88].veinsmobility 	totalTime 	299.7
scalar RSUExampleScenario.node[88].veinsmobility 	stopTime 	563.9
scalar RSUExampleScenario.node[88].veinsmobility 	minSpeed 	0.24840936037223
scalar RSUExampleScenario.node[88].veinsmobility 	maxSpeed 	13.999991359187
scalar RSUExampleScenario.node[88].veinsmobility 	totalDistance 	3414.209014325
scalar RSUExampleScenario.node[88].veinsmobility 	totalCO2Emission 	724.63085364955
scalar RSUExampleScenario.node[89].veinsmobility 	startTime 	267.1
scalar RSUExampleScenario.node[89].veinsmobility 	totalTime 	300.4
scalar RSUExampleScenario.node[89].veinsmobility 	stopTime 	567.6
scalar RSUExampleScenario.node[89].veinsmobility 	minSpeed 	0.25933126916015
scalar RSUExampleScenario.node[89].veinsmobility 	maxSpeed 	13.999965461537
scalar RSUExampleScenario.node[89].veinsmobility 	totalDistance 	3410.10660459
scalar RSUExampleScenario.node[89].veinsmobility 	totalCO2Emission 	722.36847593257
scalar RSUExampleScenario.node[90].veinsmobility 	startTime 	270.1
scalar RSUExampleScenario.node[90].veinsmobility 	totalTime 	301.1
scalar RSUExampleScenario.node[90].veinsmobility 	stopTime 	571.3
scalar RSUExampleScenario.node[90].veinsmobility 	minSpeed 	0.25881852384144
scalar RSUExampleScenario.node[90].veinsmobility 	maxSpeed 	13.999910332672
scalar RSUExampleScenario.node[90].veinsmobility 	totalDistance 	3414.1789052386
scalar RSUExampleScenario.node[90].veinsmobility 	totalCO2Emission 	726.35918956011
scalar RSUExampleScenario.node[91].veinsmobility 	startTime 	273.1
scalar RSUExampleScenario.node[91].veinsmobility 	totalTime 	301.8
scalar RSUExampleScenario.node[91].veinsmobility 	stopTime 	575
scalar RSUExampleScenario.node[91].veinsmobility 	minSpeed 	0.2501302171424
scalar RSUExampleScenario.node[91].veinsmobility 	maxSpeed 	13.999893673568
scalar RSUExampleScenario.node[91].veinsmobility 	totalDistance 	3409.9844020677
scalar RSUExampleScenario.node[91].veinsmobility 	totalCO2Emission 	724.14829034285
scalar RSUExampleScenario.node[92].veinsmobility 	startTime 	276.1
scalar RSUExampleScenario.node[92].veinsmobility 	totalTime 	302.5
scalar RSUExampleScenario.node[92].veinsmobility 	stopTime 	578.7
scalar RSUExampleScenario.node[92].veinsmobility 	minSpeed 	0.25177350774291
scalar RSUExampleScenario.node[92].veinsmobility 	maxSpeed 	13.999999909045
scalar RSUExampleScenario.node[92].veinsmobility 	totalDistance 	3413.926131579
scalar RSUExampleScenario.node[92].veinsmobility 	totalCO2Emission 	722.01978904006
scalar RSUExampleScenario.node[93].veinsmobility 	startTime 	279.1
scalar RSUExampleScenario.node[93].veinsmobility 	totalTime 	303.2
scalar RSUExampleScenario.node[93].veinsmobility 	stopTime 	582.4
scalar RSUExampleScenario.node[93].veinsmobility 	minSpeed 	0.25101630543312
scalar RSUExampleScenario.node[93].veinsmobility 	maxSpeed 	13.999986554841
scalar RSUExampleScenario.node[93].veinsmobility 	totalDistance 	3409.6247788299
scalar RSUExampleScenario.node[93].veinsmobility 	totalCO2Emission 	726.38954833557
scalar RSUExampleScenario.node[94].veinsmobility 	startTime 	282.1
scalar RSUExampleScenario.node[94].veinsmobility 	totalTime 	304
scalar RSUExampleScenario.node[94].veinsmobility 	stopTime 	586.2
scalar RSUExampleScenario.node[94].veinsmobility 	minSpeed 	0.24703247913253
scalar RSUExampleScenario.node[94].veinsmobility 	maxSpeed 	13.999997676145
scalar RSUExampleScenario.node[94].veinsmobility 	totalDistance 	3414.2333858254
scalar RSUExampleScenario.node[94].veinsmobility 	totalCO2Emission 	723.60916901097
scalar RSUExampleScenario.node[95].veinsmobility 	startTime 	285.1
scalar RSUExampleScenario.node[95].veinsmobility 	totalTime 	304.8
scalar RSUExampleScenario.node[95].veinsmobility 	stopTime 	590
scalar RSUExampleScenario.node[95].veinsmobility 	minSpeed 	0.24753742510919
scalar RSUExampleScenario.node[95].veinsmobility 	maxSpeed 	13.999927529215
scalar RSUExampleScenario.node[95].veinsmobility 	totalDistance 	3410.1306117695
scalar RSUExampleScenario.node[95].veinsmobility 	totalCO2Emission 	724.22464266947
scalar RSUExampleScenario.node[96].veinsmobility 	startTime 	288.1
scalar RSUExampleScenario.node[96].veinsmobility 	totalTime 	305.5
scalar RSUExampleScenario.node[96].veinsmobility 	stopTime 	593.7
scalar RSUExampleScenario.node[96].veinsmobility 	minSpeed 	0.25802173617575
scalar RSUExampleScenario.node[96].veinsmobility 	maxSpeed 	13.999869069178
scalar RSUExampleScenario.node[96].veinsmobility 	totalDistance 	3413.8127480651
scalar RSUExampleScenario.node[96].veinsmobility 	totalCO2Emission 	724.43728993452
scalar RSUExampleScenario.node[97].veinsmobility 	startTime 	291.1
scalar RSUExampleScenario.node[97].veinsmobility 	totalTime 	306.2
scalar RSUExampleScenario.node[97].veinsmobility 	stopTime 	597.4
scalar RSUExampleScenario.node[97].veinsmobility 	minSpeed 	0.25580273528956
scalar RSUExampleScenario.node[97].veinsmobility 	maxSpeed 	13.999861730554
scalar RSUExampleScenario.node[97].veinsmobility 	totalDistance 	3409.4299293866
scalar RSUExampleScenario.node[97].veinsmobility 	totalCO2Emission 	728.53950285579
scalar RSUExampleScenario.node[98].veinsmobility 	startTime 	294.1
scalar RSUExampleScenario.node[98].veinsmobility 	totalTime 	306.9
scalar RSUExampleScenario.node[98].veinsmobility 	stopTime 	601.1
scalar RSUExampleScenario.node[98].veinsmobility 	minSpeed 	0.25589854190871
scalar RSUExampleScenario.node[98].veinsmobility 	maxSpeed 	13.999953703
scalar RSUExampleScenario.node[98].veinsmobility 	totalDistance 	3414.30518504
scalar RSUExampleScenario.node[98].veinsmobility 	totalCO2Emission 	729.60089236467
scalar RSUExampleScenario.node[99].veinsmobility 	startTime 	297.1
scalar RSUExampleScenario.node[99].veinsmobility 	totalTime 	307.6
scalar RSUExampleScenario.node[99].veinsmobility 	stopTime 	604.8
scalar RSUExampleScenario.node[99].veinsmobility 	minSpeed 	0.2563238882944
scalar RSUExampleScenario.node[99].veinsmobility 	maxSpeed 	13.999954554772
scalar RSUExampleScenario.node[99].veinsmobility 	totalDistance 	3410.1502271416
scalar RSUExampleScenario.node[99].veinsmobility 	totalCO2Emission 	726.17661375289
scalar RSUExampleScenario.node[100].veinsmobility 	startTime 	300.1
scalar RSUExampleScenario.node[100].veinsmobility 	totalTime 	308.4
scalar RSUExampleScenario.node[100].veinsmobility 	stopTime 	608.6
scalar RSUExampleScenario.node[100].veinsmobility 	minSpeed 	0.25304582767608
scalar RSUExampleScenario.node[100].veinsmobility 	maxSpeed 	13.999906169523
scalar RSUExampleScenario.node[100].veinsmobility 	totalDistance 	3413.7046829848
scalar RSUExampleScenario.node[100].veinsmobility 	totalCO2Emission 	726.85794841357
scalar RSUExampleScenario.node[101].veinsmobility 	startTime 	303.1
scalar RSUExampleScenario.node[101].veinsmobility 	totalTime 	309.1
scalar RSUExampleScenario.node[101].veinsmobility 	stopTime 	612.3
scalar RSUExampleScenario.node[101].veinsmobility 	minSpeed 	0.25590231205849
scalar RSUExampleScenario.node[101].veinsmobility 	maxSpeed 	13.999966135756
scalar RSUExampleScenario.node[101].veinsmobility 	totalDistance 	3409.5619271276
scalar RSUExampleScenario.node[101].veinsmobility 	totalCO2Emission 	734.24824487587
scalar RSUExampleScenario.node[102].veinsmobility 	startTime 	306.1
scalar RSUExampleScenario.node[102].veinsmobility 	totalTime 	309.8
scalar RSUExampleScenario.node[102].veinsmobility 	stopTime 	616
scalar RSUExampleScenario.node[102].veinsmobility 	minSpeed 	0.25363273333525
scalar RSUExampleScenario.node[102].veinsmobility 	maxSpeed 	13.999977183207
scalar RSUExampleScenario.node[102].veinsmobility 	totalDistance 	3414.2202075416
scalar RSUExampleScenario.node[102].veinsmobility 	totalCO2Emission 	734.78522398582
scalar RSUExampleScenario.node[103].veinsmobility 	startTime 	309.1
scalar RSUExampleScenario.node[103].veinsmobility 	totalTime 	310.4
scalar RSUExampleScenario.node[103].veinsmobility 	stopTime 	619.6
scalar RSUExampleScenario.node[103].veinsmobility 	minSpeed 	0.24974285301426
scalar RSUExampleScenario.node[103].veinsmobility 	maxSpeed 	13.999966973907
scalar RSUExampleScenario.node[103].veinsmobility 	totalDistance 	3409.7077937963
scalar RSUExampleScenario.node[103].veinsmobility 	totalCO2Emission 	727.8875231593
scalar RSUExampleScenario.node[104].veinsmobility 	startTime 	312.1
scalar RSUExampleScenario.node[104].veinsmobility 	totalTime 	311.1
scalar RSUExampleScenario.node[104].veinsmobility 	stopTime 	623.3
scalar RSUExampleScenario.node[104].veinsmobility 	minSpeed 	0.25317477814597
scalar RSUExampleScenario.node[104].veinsmobility 	maxSpeed 	13.999998728624
scalar RSUExampleScenario.node[104].veinsmobility 	totalDistance 	3413.8601580449
scalar RSUExampleScenario.node[104].veinsmobility 	totalCO2Emission 	733.20132649213
scalar RSUExampleScenario.node[105].veinsmobility 	startTime 	315.1
scalar RSUExampleScenario.node[105].veinsmobility 	totalTime 	311.7
scalar RSUExampleScenario.node[105].veinsmobility 	stopTime 	626.9
scalar RSUExampleScenario.node[105].veinsmobility 	minSpeed 	0.25904602111224
scalar RSUExampleScenario.node[105].veinsmobility 	maxSpeed 	13.999986740837
scalar RSUExampleScenario.node[105].veinsmobility 	totalDistance 	3409.7215108688
scalar RSUExampleScenario.node[105].veinsmobility 	totalCO2Emission 	731.44093358538
scalar RSUExampleScenario.node[106].veinsmobility 	startTime 	318.1
scalar RSUExampleScenario.node[106].veinsmobility 	totalTime 	312.4
scalar RSUExampleScenario.node[106].veinsmobility 	stopTime 	630.6
scalar RSUExampleScenario.node[106].veinsmobility 	minSpeed 	0.24851950338553
scalar RSUExampleScenario.node[106].veinsmobility 	maxSpeed 	13.999992809538
scalar RSUExampleScenario.node[106].veinsmobility 	totalDistance 	3414.0899649969
scalar RSUExampleScenario.node[106].veinsmobility 	totalCO2Emission 	731.64566666826
scalar RSUExampleScenario.node[107].veinsmobility 	startTime 	321.1
scalar RSUExampleScenario.node[107].veinsmobility 	totalTime 	313.1
scalar RSUExampleScenario.node[107].veinsmobility 	stopTime 	634.3
scalar RSUExampleScenario.node[107].veinsmobility 	minSpeed 	0.25537179041957
scalar RSUExampleScenario.node[107].veinsmobility 	maxSpeed 	13.999979273453
scalar RSUExampleScenario.node[107].veinsmobility 	totalDistance 	3409.8221459064
scalar RSUExampleScenario.node[107].veinsmobility 	totalCO2Emission 	736.71936469546
scalar RSUExampleScenario.node[108].veinsmobility 	startTime 	324.1
scalar RSUExampleScenario.node[108].veinsmobility 	totalTime 	313.8
scalar RSUExampleScenario.node[108].veinsmobility 	stopTime 	638
scalar RSUExampleScenario.node[108].veinsmobility 	minSpeed 	0.24904417440481
scalar RSUExampleScenario.node[108].veinsmobility 	maxSpeed 	13.999999579457
scalar RSUExampleScenario.node[108].veinsmobility 	totalDistance 	3413.6359269533
scalar RSUExampleScenario.node[108].veinsmobility 	totalCO2Emission 	735.95418105745
scalar RSUExampleScenario.node[109].veinsmobility 	startTime 	327.1
scalar RSUExampleScenario.node[109].veinsmobility 	totalTime 	314.5
scalar RSUExampleScenario.node[109].veinsmobility 	stopTime 	641.7
scalar RSUExampleScenario.node[109].veinsmobility 	minSpeed 	0.24868759463215
scalar RSUExampleScenario.node[109].veinsmobility 	maxSpeed 	13.999797642245
scalar RSUExampleScenario.node[109].veinsmobility 	totalDistance 	3409.7877444454
scalar RSUExampleScenario.node[109].veinsmobility 	totalCO2Emission 	733.03945810659
scalar RSUExampleScenario.node[110].veinsmobility 	startTime 	330.1
scalar RSUExampleScenario.node[110].veinsmobility 	totalTime 	315.1
scalar RSUExampleScenario.node[110].veinsmobility 	stopTime 	645.3
scalar RSUExampleScenario.node[110].veinsmobility 	minSpeed 	0.25959541879501
scalar RSUExampleScenario.node[110].veinsmobility 	maxSpeed 	13.999980159428
scalar RSUExampleScenario.node[110].veinsmobility 	totalDistance 	3413.7644970087
scalar RSUExampleScenario.node[110].veinsmobility 	totalCO2Emission 	739.59610300091
scalar RSUExampleScenario.node[111].veinsmobility 	startTime 	333.1
scalar RSUExampleScenario.node[111].veinsmobility 	totalTime 	315.8
scalar RSUExampleScenario.node[111].veinsmobility 	stopTime 	649
scalar RSUExampleScenario.node[111].veinsmobility 	minSpeed 	0.25661803762964
scalar RSUExampleScenario.node[111].veinsmobility 	maxSpeed 	13.999586134115
scalar RSUExampleScenario.node[111].veinsmobility 	totalDistance 	3409.6042466131
scalar RSUExampleScenario.node[111].veinsmobility 	totalCO2Emission 	737.10959314142
scalar RSUExampleScenario.node[112].veinsmobility 	startTime 	336.1
scalar RSUExampleScenario.node[112].veinsmobility 	totalTime 	316.5
scalar RSUExampleScenario.node[112].veinsmobility 	stopTime 	652.7
scalar RSUExampleScenario.node[112].veinsmobility 	minSpeed 	0.25562675458402
scalar RSUExampleScenario.node[112].veinsmobility 	maxSpeed 	13.999996194649
scalar RSUExampleScenario.node[112].veinsmobility 	totalDistance 	3413.8713041094
scalar RSUExampleScenario.node[112].veinsmobility 	totalCO2Emission 	738.7129355862
scalar RSUExampleScenario.node[113].veinsmobility 	startTime 	339.1
scalar RSUExampleScenario.node[113].veinsmobility 	totalTime 	317.2
scalar RSUExampleScenario.node[113].veinsmobility 	stopTime 	656.4
scalar RSUExampleScenario.node[113].veinsmobility 	minSpeed 	0.25110597294848
scalar RSUExampleScenario.node[113].veinsmobility 	maxSpeed 	13.999810843444
scalar RSUExampleScenario.node[113].veinsmobility 	totalDistance 	3409.9284514624
scalar RSUExampleScenario.node[113].veinsmobility 	totalCO2Emission 	741.48067673187
scalar RSUExampleScenario.node[114].veinsmobility 	startTime 	342.1
scalar RSUExampleScenario.node[114].veinsmobility 	totalTime 	317.8
scalar RSUExampleScenario.node[114].veinsmobility 	stopTime 	660
scalar RSUExampleScenario.node[114].veinsmobility 	minSpeed 	0.25562903045793
scalar RSUExampleScenario.node[114].veinsmobility 	maxSpeed 	13.999986254431
scalar RSUExampleScenario.node[114].veinsmobility 	totalDistance 	3413.8078488398
scalar RSUExampleScenario.node[114].veinsmobility 	totalCO2Emission 	741.1466346869
scalar RSUExampleScenario.node[115].veinsmobility 	startTime 	345.1
scalar RSUExampleScenario.node[115].veinsmobility 	totalTime 	318.4
scalar RSUExampleScenario.node[115].veinsmobility 	stopTime 	663.6
scalar RSUExampleScenario.node[115].veinsmobility 	minSpeed 	0.25993516199267
scalar RSUExampleScenario.node[115].veinsmobility 	maxSpeed 	13.999949291411
scalar RSUExampleScenario.node[115].veinsmobility 	totalDistance 	3409.3884761014
scalar RSUExampleScenario.node[115].veinsmobility 	totalCO2Emission 	739.55400359122
scalar RSUExampleScenario.node[116].veinsmobility 	startTime 	348.1
scalar RSUExampleScenario.node[116].veinsmobility 	totalTime 	319.1
scalar RSUExampleScenario.node[116].veinsmobility 	stopTime 	667.3
scalar RSUExampleScenario.node[116].veinsmobility 	minSpeed 	0.25242948886054
scalar RSUExampleScenario.node[116].veinsmobility 	maxSpeed 	13.999987474836
scalar RSUExampleScenario.node[116].veinsmobility 	totalDistance 	3414.1278528515
scalar RSUExampleScenario.node[116].veinsmobility 	totalCO2Emission 	741.38505670717
scalar RSUExampleScenario.node[117].veinsmobility 	startTime 	351.1
scalar RSUExampleScenario.node[117].veinsmobility 	totalTime 	319.8
scalar RSUExampleScenario.node[117].veinsmobility 	stopTime 	671
scalar RSUExampleScenario.node[117].veinsmobility 	minSpeed 	0.2530772766741
scalar RSUExampleScenario.node[117].veinsmobility 	maxSpeed 	13.999998837074
scalar RSUExampleScenario.node[117].veinsmobility 	totalDistance 	3410.0940366274
scalar RSUExampleScenario.node[117].veinsmobility 	totalCO2Emission 	740.92179275483
scalar RSUExampleScenario.node[118].veinsmobility 	startTime 	354.1
scalar RSUExampleScenario.node[118].veinsmobility 	totalTime 	320.5
scalar RSUExampleScenario.node[118].veinsmobility 	stopTime 	674.7
scalar RSUExampleScenario.node[118].veinsmobility 	minSpeed 	0.25247989046527
scalar RSUExampleScenario.node[118].veinsmobility 	maxSpeed 	13.999885601611
scalar RSUExampleScenario.node[118].veinsmobility 	totalDistance 	3414.138808487
scalar RSUExampleScenario.node[118].veinsmobility 	totalCO2Emission 	739.15661514694
scalar RSUExampleScenario.node[119].veinsmobility 	startTime 	357.1
scalar RSUExampleScenario.node[119].veinsmobility 	totalTime 	321.3
scalar RSUExampleScenario.node[119].veinsmobility 	stopTime 	678.5
scalar RSUExampleScenario.node[119].veinsmobility 	minSpeed 	0.25256333620893
scalar RSUExampleScenario.node[119].veinsmobility 	maxSpeed 	13.999861964949
scalar RSUExampleScenario.node[119].veinsmobility 	totalDistance 	3409.7960743189
scalar RSUExampleScenario.node[119].veinsmobility 	totalCO2Emission 	738.94677923812
scalar RSUExampleScenario.node[120].veinsmobility 	startTime 	360.1
scalar RSUExampleScenario.node[120].veinsmobility 	totalTime 	322
scalar RSUExampleScenario.node[120].veinsmobility 	stopTime 	682.2
scalar RSUExampleScenario.node[120].veinsmobility 	minSpeed 	0.25459641933488
scalar RSUExampleScenario.node[120].veinsmobility 	maxSpeed 	13.999883097934
scalar RSUExampleScenario.node[120].veinsmobility 	totalDistance 	3413.8837160876
scalar RSUExampleScenario.node[120].veinsmobility 	totalCO2Emission 	743.66776773501
scalar RSUExampleScenario.node[121].veinsmobility 	startTime 	363.1
scalar RSUExampleScenario.node[121].veinsmobility 	totalTime 	322.7
scalar RSUExampleScenario.node[121].veinsmobility 	stopTime 	685.9
scalar RSUExampleScenario.node[121].veinsmobility 	minSpeed 	0.24958732888917
scalar RSUExampleScenario.node[121].veinsmobility 	maxSpeed 	13.999979691333
scalar RSUExampleScenario.node[121].veinsmobility 	totalDistance 	3409.9459628446
scalar RSUExampleScenario.node[121].veinsmobility 	totalCO2Emission 	744.73266936925
scalar RSUExampleScenario.node[122].veinsmobility 	startTime 	366.1
scalar RSUExampleScenario.node[122].veinsmobility 	totalTime 	323.4
scalar RSUExampleScenario.node[122].veinsmobility 	stopTime 	689.6
scalar RSUExampleScenario.node[122].veinsmobility 	minSpeed 	0.25991953708744
scalar RSUExampleScenario.node[122].veinsmobility 	maxSpeed 	13.999989358685
scalar RSUExampleScenario.node[122].veinsmobility 	totalDistance 	3414.0360853949
scalar RSUExampleScenario.node[122].veinsmobility 	totalCO2Emission 	743.32823460062
scalar RSUExampleScenario.node[123].veinsmobility 	startTime 	369.1
scalar RSUExampleScenario.node[123].veinsmobility 	totalTime 	324
scalar RSUExampleScenario.node[123].veinsmobility 	stopTime 	693.2
scalar RSUExampleScenario.node[123].veinsmobility 	minSpeed 	0.2564087679293
scalar RSUExampleScenario.node[123].veinsmobility 	maxSpeed 	13.99992906583
scalar RSUExampleScenario.node[123].veinsmobility 	totalDistance 	3409.6946271743
scalar RSUExampleScenario.node[123].veinsmobility 	totalCO2Emission 	742.11435566148
scalar RSUExampleScenario.node[124].veinsmobility 	startTime 	372.1
scalar RSUExampleScenario.node[124].veinsmobility 	totalTime 	324.7
scalar RSUExampleScenario.node[124].veinsmobility 	stopTime 	696.9
scalar RSUExampleScenario.node[124].veinsmobility 	minSpeed 	0.25802930789348
scalar RSUExampleScenario.node[124].veinsmobility 	maxSpeed 	13.999961435259
scalar RSUExampleScenario.node[124].veinsmobility 	totalDistance 	3414.0484482495
scalar RSUExampleScenario.node[124].veinsmobility 	totalCO2Emission 	744.7897044512
scalar RSUExampleScenario.node[125].veinsmobility 	startTime 	375.1
scalar RSUExampleScenario.node[125].veinsmobility 	totalTime 	325.4
scalar RSUExampleScenario.node[125].veinsmobility 	stopTime 	700.6
scalar RSUExampleScenario.node[125].veinsmobility 	minSpeed 	0.25620776789612
scalar RSUExampleScenario.node[125].veinsmobility 	maxSpeed 	13.99984284533
scalar RSUExampleScenario.node[125].veinsmobility 	totalDistance 	3410.032025708
scalar RSUExampleScenario.node[125].veinsmobility 	totalCO2Emission 	747.1261140502
scalar RSUExampleScenario.node[126].veinsmobility 	startTime 	378.1
scalar RSUExampleScenario.node[126].veinsmobility 	totalTime 	326.1
scalar RSUExampleScenario.node[126].veinsmobility 	stopTime 	704.3
scalar RSUExampleScenario.node[126].veinsmobility 	minSpeed 	0.2596244289109
scalar RSUExampleScenario.node[126].veinsmobility 	maxSpeed 	13.999986495092
scalar RSUExampleScenario.node[126].veinsmobility 	totalDistance 	3409.9292211675
scalar RSUExampleScenario.node[126].veinsmobility 	totalCO2Emission 	746.20170073132
scalar RSUExampleScenario.node[127].veinsmobility 	startTime 	381.1
scalar RSUExampleScenario.node[127].veinsmobility 	totalTime 	326.8
scalar RSUExampleScenario.node[127].veinsmobility 	stopTime 	708
scalar RSUExampleScenario.node[127].veinsmobility 	minSpeed 	0.25579041225207
scalar RSUExampleScenario.node[127].veinsmobility 	maxSpeed 	13.999846765911
scalar RSUExampleScenario.node[127].veinsmobility 	totalDistance 	3414.1760494698
scalar RSUExampleScenario.node[127].veinsmobility 	totalCO2Emission 	751.26180723547
scalar RSUExampleScenario.node[128].veinsmobility 	startTime 	384.1
scalar RSUExampleScenario.node[128].veinsmobility 	totalTime 	327.5
scalar RSUExampleScenario.node[128].veinsmobility 	stopTime 	711.7
scalar RSUExampleScenario.node[128].veinsmobility 	minSpeed 	0.25477008293848
scalar RSUExampleScenario.node[128].veinsmobility 	maxSpeed 	13.999935025868
scalar RSUExampleScenario.node[128].veinsmobility 	totalDistance 	3409.7983086731
scalar RSUExampleScenario.node[128].veinsmobility 	totalCO2Emission 	749.74429733988
scalar RSUExampleScenario.node[129].veinsmobility 	startTime 	387.1
scalar RSUExampleScenario.node[129].veinsmobility 	totalTime 	328.2
scalar RSUExampleScenario.node[129].veinsmobility 	stopTime 	715.4
scalar RSUExampleScenario.node[129].veinsmobility 	minSpeed 	0.25894591069454
scalar RSUExampleScenario.node[129].veinsmobility 	maxSpeed 	13.999951579762
scalar RSUExampleScenario.node[129].veinsmobility 	totalDistance 	3414.0683667118
scalar RSUExampleScenario.node[129].veinsmobility 	totalCO2Emission 	749.04551385119
scalar RSUExampleScenario.node[130].veinsmobility 	startTime 	390.1
scalar RSUExampleScenario.node[130].veinsmobility 	totalTime 	328.9
scalar RSUExampleScenario.node[130].veinsmobility 	stopTime 	719.1
scalar RSUExampleScenario.node[130].veinsmobility 	minSpeed 	0.24794039075752
scalar RSUExampleScenario.node[130].veinsmobility 	maxSpeed 	13.999949534675
scalar RSUExampleScenario.node[130].veinsmobility 	totalDistance 	3409.6754547696
scalar RSUExampleScenario.node[130].veinsmobility 	totalCO2Emission 	749.31593512197
scalar RSUExampleScenario.node[131].veinsmobility 	startTime 	393.1
scalar RSUExampleScenario.node[131].veinsmobility 	totalTime 	329.6
scalar RSUExampleScenario.node[131].veinsmobility 	stopTime 	722.8
scalar RSUExampleScenario.node[131].veinsmobility 	minSpeed 	0.25906588047207
scalar RSUExampleScenario.node[131].veinsmobility 	maxSpeed 	13.999941785103
scalar RSUExampleScenario.node[131].veinsmobility 	totalDistance 	3413.9121931362
scalar RSUExampleScenario.node[131].veinsmobility 	totalCO2Emission 	756.5059252555
scalar RSUExampleScenario.node[132].veinsmobility 	startTime 	396.1
scalar RSUExampleScenario.node[132].veinsmobility 	totalTime 	330.2
scalar RSUExampleScenario.node[132].veinsmobility 	stopTime 	726.4
scalar RSUExampleScenario.node[132].veinsmobility 	minSpeed 	0.25009302229132
scalar RSUExampleScenario.node[132].veinsmobility 	maxSpeed 	13.999939977226
scalar RSUExampleScenario.node[132].veinsmobility 	totalDistance 	3409.5591088081
scalar RSUExampleScenario.node[132].veinsmobility 	totalCO2Emission 	751.74086966048
scalar RSUExampleScenario.node[133].veinsmobility 	startTime 	399.1
scalar RSUExampleScenario.node[133].veinsmobility 	totalTime 	330.8
scalar RSUExampleScenario.node[133].veinsmobility 	stopTime 	730
scalar RSUExampleScenario.node[133].veinsmobility 	minSpeed 	0.24972200646414
scalar RSUExampleScenario.node[133].veinsmobility 	maxSpeed 	13.999908132371
scalar RSUExampleScenario.node[133].veinsmobility 	totalDistance 	3413.6644568401
scalar RSUExampleScenario.node[133].veinsmobility 	totalCO2Emission 	749.17730125855
scalar RSUExampleScenario.node[134].veinsmobility 	startTime 	402.1
scalar RSUExampleScenario.node[134].veinsmobility 	totalTime 	331.5
scalar RSUExampleScenario.node[134].veinsmobility 	stopTime 	733.7
scalar RSUExampleScenario.node[134].veinsmobility 	minSpeed 	0.2527327314124
scalar RSUExampleScenario.node[134].veinsmobility 	maxSpeed 	13.999880797053
scalar RSUExampleScenario.node[134].veinsmobility 	totalDistance 	3410.0455185188
scalar RSUExampleScenario.node[134].veinsmobility 	totalCO2Emission 	758.37362659966
scalar RSUExampleScenario.node[135].veinsmobility 	startTime 	405.1
scalar RSUExampleScenario.node[135].veinsmobility 	totalTime 	332.1
scalar RSUExampleScenario.node[135].veinsmobility 	stopTime 	737.3
scalar RSUExampleScenario.node[135].veinsmobility 	minSpeed 	0.24830083494657
scalar RSUExampleScenario.node[135].veinsmobility 	maxSpeed 	13.999913233041
scalar RSUExampleScenario.node[135].veinsmobility 	totalDistance 	3414.0036741759
scalar RSUExampleScenario.node[135].veinsmobility 	totalCO2Emission 	752.99779132738
scalar RSUExampleScenario.node[136].veinsmobility 	startTime 	408.1
scalar RSUExampleScenario.node[136].veinsmobility 	totalTime 	332.8
scalar RSUExampleScenario.node[136].veinsmobility 	stopTime 	741
scalar RSUExampleScenario.node[136].veinsmobility 	minSpeed 	0.24743056041212
scalar RSUExampleScenario.node[136].veinsmobility 	maxSpeed 	13.999901953072
scalar RSUExampleScenario.node[136].veinsmobility 	totalDistance 	3410.0100143385
scalar RSUExampleScenario.node[136].veinsmobility 	totalCO2Emission 	756.89726998687
scalar RSUExampleScenario.node[137].veinsmobility 	startTime 	411.1
scalar RSUExampleScenario.node[137].veinsmobility 	totalTime 	333.5
scalar RSUExampleScenario.node[137].veinsmobility 	stopTime 	744.7
scalar RSUExampleScenario.node[137].veinsmobility 	minSpeed 	0.25005946226488
scalar RSUExampleScenario.node[137].veinsmobility 	maxSpeed 	13.999711691765
scalar RSUExampleScenario.node[137].veinsmobility 	totalDistance 	3414.1419624385
scalar RSUExampleScenario.node[137].veinsmobility 	totalCO2Emission 	755.57377717581
scalar RSUExampleScenario.node[138].veinsmobility 	startTime 	414.1
scalar RSUExampleScenario.node[138].veinsmobility 	totalTime 	334.1
scalar RSUExampleScenario.node[138].veinsmobility 	stopTime 	748.3
scalar RSUExampleScenario.node[138].veinsmobility 	minSpeed 	0.25752234682883
scalar RSUExampleScenario.node[138].veinsmobility 	maxSpeed 	13.99997998917
scalar RSUExampleScenario.node[138].veinsmobility 	totalDistance 	3409.6090347279
scalar RSUExampleScenario.node[138].veinsmobility 	totalCO2Emission 	755.63820005332
scalar RSUExampleScenario.node[139].veinsmobility 	startTime 	417.1
scalar RSUExampleScenario.node[139].veinsmobility 	totalTime 	334.8
scalar RSUExampleScenario.node[139].veinsmobility 	stopTime 	752
scalar RSUExampleScenario.node[139].veinsmobility 	minSpeed 	0.25422997205122
scalar RSUExampleScenario.node[139].veinsmobility 	maxSpeed 	13.999988492869
scalar RSUExampleScenario.node[139].veinsmobility 	totalDistance 	3413.7639624184
scalar RSUExampleScenario.node[139].veinsmobility 	totalCO2Emission 	754.98189218331
scalar RSUExampleScenario.node[140].veinsmobility 	startTime 	420.1
scalar RSUExampleScenario.node[140].veinsmobility 	totalTime 	335.4
scalar RSUExampleScenario.node[140].veinsmobility 	stopTime 	755.6
scalar RSUExampleScenario.node[140].veinsmobility 	minSpeed 	0.24991646325542
scalar RSUExampleScenario.node[140].veinsmobility 	maxSpeed 	13.999950942227
scalar RSUExampleScenario.node[140].veinsmobility 	totalDistance 	3409.5738590733
scalar RSUExampleScenario.node[140].veinsmobility 	totalCO2Emission 	755.12671018548
scalar RSUExampleScenario.node[141].veinsmobility 	startTime 	423.1
scalar RSUExampleScenario.node[141].veinsmobility 	totalTime 	336.1
scalar RSUExampleScenario.node[141].veinsmobility 	stopTime 	759.3
scalar RSUExampleScenario.node[141].veinsmobility 	minSpeed 	0.25207591133285
scalar RSUExampleScenario.node[141].veinsmobility 	maxSpeed 	13.99998907468
scalar RSUExampleScenario.node[141].veinsmobility 	totalDistance 	3414.0033114243
scalar RSUExampleScenario.node[141].veinsmobility 	totalCO2Emission 	762.2796242392
scalar RSUExampleScenario.node[142].veinsmobility 	startTime 	426.1
scalar RSUExampleScenario.node[142].veinsmobility 	totalTime 	336.7
scalar RSUExampleScenario.node[142].veinsmobility 	stopTime 	762.9
scalar RSUExampleScenario.node[142].veinsmobility 	minSpeed 	0.25191465745121
scalar RSUExampleScenario.node[142].veinsmobility 	maxSpeed 	13.999958909608
scalar RSUExampleScenario.node[142].veinsmobility 	totalDistance 	3409.5762095964
scalar RSUExampleScenario.node[142].veinsmobility 	totalCO2Emission 	756.14990398466
scalar RSUExampleScenario.node[143].veinsmobility 	startTime 	429.1
scalar RSUExampleScenario.node[143].veinsmobility 	totalTime 	337.4
scalar RSUExampleScenario.node[143].veinsmobility 	stopTime 	766.6
scalar RSUExampleScenario.node[143].veinsmobility 	minSpeed 	0.25131698158081
scalar RSUExampleScenario.node[143].veinsmobility 	maxSpeed 	13.999939580383
scalar RSUExampleScenario.node[143].veinsmobility 	totalDistance 	3410.1507273238
scalar RSUExampleScenario.node[143].veinsmobility 	totalCO2Emission 	761.6471885561
scalar RSUExampleScenario.node[144].veinsmobility 	startTime 	432.1
scalar RSUExampleScenario.node[144].veinsmobility 	totalTime 	338.1
scalar RSUExampleScenario.node[144].veinsmobility 	stopTime 	770.3
scalar RSUExampleScenario.node[144].veinsmobility 	minSpeed 	0.25782692968939
scalar RSUExampleScenario.node[144].veinsmobility 	maxSpeed 	13.999958932218
scalar RSUExampleScenario.node[144].veinsmobility 	totalDistance 	3414.0823695087
scalar RSUExampleScenario.node[144].veinsmobility 	totalCO2Emission 	754.87582287255
scalar RSUExampleScenario.node[145].veinsmobility 	startTime 	435.1
scalar RSUExampleScenario.node[145].veinsmobility 	totalTime 	338.8
scalar RSUExampleScenario.node[145].veinsmobility 	stopTime 	774
scalar RSUExampleScenario.node[145].veinsmobility 	minSpeed 	0.25711274466175
scalar RSUExampleScenario.node[145].veinsmobility 	maxSpeed 	13.999948165533
scalar RSUExampleScenario.node[145].veinsmobility 	totalDistance 	3409.8774950291
scalar RSUExampleScenario.node[145].veinsmobility 	totalCO2Emission 	760.386449889
scalar RSUExampleScenario.node[146].veinsmobility 	startTime 	438.1
scalar RSUExampleScenario.node[146].veinsmobility 	totalTime 	339.5
scalar RSUExampleScenario.node[146].veinsmobility 	stopTime 	777.7
scalar RSUExampleScenario.node[146].veinsmobility 	minSpeed 	0.25674019779824
scalar RSUExampleScenario.node[146].veinsmobility 	maxSpeed 	13.999901510493
scalar RSUExampleScenario.node[146].veinsmobility 	totalDistance 	3413.7500048786
scalar RSUExampleScenario.node[146].veinsmobility 	totalCO2Emission 	761.07015132565
scalar RSUExampleScenario.node[147].veinsmobility 	startTime 	441.1
scalar RSUExampleScenario.node[147].veinsmobility 	totalTime 	340.2
scalar RSUExampleScenario.node[147].veinsmobility 	stopTime 	781.4
scalar RSUExampleScenario.node[147].veinsmobility 	minSpeed 	0.25052267037192
scalar RSUExampleScenario.node[147].veinsmobility 	maxSpeed 	13.999899587235
scalar RSUExampleScenario.node[147].veinsmobility 	totalDistance 	3409.9158197244
scalar RSUExampleScenario.node[147].veinsmobility 	totalCO2Emission 	764.87311151946
scalar RSUExampleScenario.node[148].veinsmobility 	startTime 	444.1
scalar RSUExampleScenario.node[148].veinsmobility 	totalTime 	340.9
scalar RSUExampleScenario.node[148].veinsmobility 	stopTime 	785.1
scalar RSUExampleScenario.node[148].veinsmobility 	minSpeed 	0.25962247849954
scalar RSUExampleScenario.node[148].veinsmobility 	maxSpeed 	13.999888002195
scalar RSUExampleScenario.node[148].veinsmobility 	totalDistance 	3413.7701153716
scalar RSUExampleScenario.node[148].veinsmobility 	totalCO2Emission 	766.75852854546
scalar RSUExampleScenario.node[149].veinsmobility 	startTime 	447.1
scalar RSUExampleScenario.node[149].veinsmobility 	totalTime 	341.6
scalar RSUExampleScenario.node[149].veinsmobility 	stopTime 	788.8
scalar RSUExampleScenario.node[149].veinsmobility 	minSpeed 	0.25091869239043
scalar RSUExampleScenario.node[149].veinsmobility 	maxSpeed 	13.999978449771
scalar RSUExampleScenario.node[149].veinsmobility 	totalDistance 	3410.0472607279
scalar RSUExampleScenario.node[149].veinsmobility 	totalCO2Emission 	761.77884491763
scalar RSUExampleScenario.node[150].veinsmobility 	startTime 	450.1
scalar RSUExampleScenario.node[150].veinsmobility 	totalTime 	342.3
scalar RSUExampleScenario.node[150].veinsmobility 	stopTime 	792.5
scalar RSUExampleScenario.node[150].veinsmobility 	minSpeed 	0.25053172442177
scalar RSUExampleScenario.node[150].veinsmobility 	maxSpeed 	13.999960790037
scalar RSUExampleScenario.node[150].veinsmobility 	totalDistance 	3414.2816734961
scalar RSUExampleScenario.node[150].veinsmobility 	totalCO2Emission 	763.60192325021
scalar RSUExampleScenario.node[151].veinsmobility 	startTime 	453.1
scalar RSUExampleScenario.node[151].veinsmobility 	totalTime 	343
scalar RSUExampleScenario.node[151].veinsmobility 	stopTime 	796.2
scalar RSUExampleScenario.node[151].veinsmobility 	minSpeed 	0.25070048414893
scalar RSUExampleScenario.node[151].veinsmobility 	maxSpeed 	13.999759394713
scalar RSUExampleScenario.node[151].veinsmobility 	totalDistance 	3409.6773299123
scalar RSUExampleScenario.node[151].veinsmobility 	totalCO2Emission 	764.7405918123
scalar RSUExampleScenario.node[152].veinsmobility 	startTime 	456.1
scalar RSUExampleScenario.node[152].veinsmobility 	totalTime 	343.7
scalar RSUExampleScenario.node[152].veinsmobility 	stopTime 	799.9
scalar RSUExampleScenario.node[152].veinsmobility 	minSpeed 	0.24975629100017
scalar RSUExampleScenario.node[152].veinsmobility 	maxSpeed 	13.999981932768
scalar RSUExampleScenario.node[152].veinsmobility 	totalDistance 	3413.8911969264
[...]
scalar RSUExampleScenario.node[628].veinsmobility 	totalCO2Emission 	321.50674215257
scalar RSUExampleScenario.node[629].veinsmobility 	startTime 	1887.1
scalar RSUExampleScenario.node[629].veinsmobility 	totalTime 	112.8
scalar RSUExampleScenario.node[629].veinsmobility 	stopTime 	2000
scalar RSUExampleScenario.node[629].veinsmobility 	minSpeed 	0.25029303165339
scalar RSUExampleScenario.node[629].veinsmobility 	maxSpeed 	13.999806517756
scalar RSUExampleScenario.node[629].veinsmobility 	totalDistance 	1364.0068971737
scalar RSUExampleScenario.node[629].veinsmobility 	totalCO2Emission 	316.99741021848
scalar RSUExampleScenario.node[630].veinsmobility 	startTime 	1890.1
scalar RSUExampleScenario.node[630].veinsmobility 	totalTime 	109.8
scalar RSUExampleScenario.node[630].veinsmobility 	stopTime 	2000
scalar RSUExampleScenario.node[630].veinsmobility 	minSpeed 	0.25726302827895
scalar RSUExampleScenario.node[630].veinsmobility 	maxSpeed 	13.999906947622
scalar RSUExampleScenario.node[630].veinsmobility 	totalDistance 	1321.5999100719
scalar RSUExampleScenario.node[630].veinsmobility 	totalCO2Emission 	311.12140915857
scalar RSUExampleScenario.node[631].veinsmobility 	startTime 	1893.1
scalar RSUExampleScenario.node[631].veinsmobility 	totalTime 	106.8
scalar RSUExampleScenario.node[631].veinsmobility 	stopTime 	2000
scalar RSUExampleScenario.node[631].veinsmobility 	minSpeed 	0.25868478762801
scalar RSUExampleScenario.node[631].veinsmobility 	maxSpeed 	13.999937908077
scalar RSUExampleScenario.node[631].veinsmobility 	totalDistance 	1280.5121116228
scalar RSUExampleScenario.node[631].veinsmobility 	totalCO2Emission 	300.93702088991
scalar RSUExampleScenario.node[632].veinsmobility 	startTime 	1896.1
scalar RSUExampleScenario.node[632].veinsmobility 	totalTime 	103.8
scalar RSUExampleScenario.node[632].veinsmobility 	stopTime 	2000
scalar RSUExampleScenario.node[632].veinsmobility 	minSpeed 	0.25471488462714
scalar RSUExampleScenario.node[632].veinsmobility 	maxSpeed 	13.999062427504
scalar RSUExampleScenario.node[632].veinsmobility 	totalDistance 	1236.4960367632
scalar RSUExampleScenario.node[632].veinsmobility 	totalCO2Emission 	299.60420194767
scalar RSUExampleScenario.node[633].veinsmobility 	startTime 	1899.1
scalar RSUExampleScenario.node[633].veinsmobility 	totalTime 	100.8
scalar RSUExampleScenario.node[633].veinsmobility 	stopTime 	2000
scalar RSUExampleScenario.node[633].veinsmobility 	minSpeed 	0.25166166165005
scalar RSUExampleScenario.node[633].veinsmobility 	maxSpeed 	13.999780817635
scalar RSUExampleScenario.node[633].veinsmobility 	totalDistance 	1195.4239683669
scalar RSUExampleScenario.node[633].veinsmobility 	totalCO2Emission 	289.73575988058
scalar RSUExampleScenario.node[634].veinsmobility 	startTime 	1902.1
scalar RSUExampleScenario.node[634].veinsmobility 	totalTime 	97.8
scalar RSUExampleScenario.node[634].veinsmobility 	stopTime 	2000
scalar RSUExampleScenario.node[634].veinsmobility 	minSpeed 	0.25650822412572
scalar RSUExampleScenario.node[634].veinsmobility 	maxSpeed 	13.999345792583
scalar RSUExampleScenario.node[634].veinsmobility 	totalDistance 	1154.0243485138
scalar RSUExampleScenario.node[634].veinsmobility 	totalCO2Emission 	280.5977938853
scalar RSUExampleScenario.node[635].veinsmobility 	startTime 	1905.1
scalar RSUExampleScenario.node[635].veinsmobility 	totalTime 	94.8
scalar RSUExampleScenario.node[635].veinsmobility 	stopTime 	2000
scalar RSUExampleScenario.node[635].veinsmobility 	minSpeed 	0.25758204232389
scalar RSUExampleScenario.node[635].veinsmobility 	maxSpeed 	13.999874012212
scalar RSUExampleScenario.node[635].veinsmobility 	totalDistance 	1111.370093514
scalar RSUExampleScenario.node[635].veinsmobility 	totalCO2Emission 	273.36431334088
scalar RSUExampleScenario.node[636].veinsmobility 	startTime 	1908.1
scalar RSUExampleScenario.node[636].veinsmobility 	totalTime 	91.8
scalar RSUExampleScenario.node[636].veinsmobility 	stopTime 	2000
scalar RSUExampleScenario.node[636].veinsmobility 	minSpeed 	0.25632896271278
scalar RSUExampleScenario.node[636].veinsmobility 	maxSpeed 	13.999974435479
scalar RSUExampleScenario.node[636].veinsmobility 	totalDistance 	1068.6679702068
scalar RSUExampleScenario.node[636].veinsmobility 	totalCO2Emission 	267.86480234702
scalar RSUExampleScenario.node[637].veinsmobility 	startTime 	1911.1
scalar RSUExampleScenario.node[637].veinsmobility 	totalTime 	88.8
scalar RSUExampleScenario.node[637].veinsmobility 	stopTime 	2000
scalar RSUExampleScenario.node[637].veinsmobility 	minSpeed 	0.25668835581583
scalar RSUExampleScenario.node[637].veinsmobility 	maxSpeed 	13.99979753661
scalar RSUExampleScenario.node[637].veinsmobility 	totalDistance 	1028.5935356326
scalar RSUExampleScenario.node[637].veinsmobility 	totalCO2Emission 	261.50634961927
scalar RSUExampleScenario.node[638].veinsmobility 	startTime 	1914.1
scalar RSUExampleScenario.node[638].veinsmobility 	totalTime 	85.8
scalar RSUExampleScenario.node[638].veinsmobility 	stopTime 	2000
scalar RSUExampleScenario.node[638].veinsmobility 	minSpeed 	0.24940920331562
scalar RSUExampleScenario.node[638].veinsmobility 	maxSpeed 	13.999869016602
scalar RSUExampleScenario.node[638].veinsmobility 	totalDistance 	985.05141021531
scalar RSUExampleScenario.node[638].veinsmobility 	totalCO2Emission 	251.99536966576
scalar RSUExampleScenario.node[639].veinsmobility 	startTime 	1917.1
scalar RSUExampleScenario.node[639].veinsmobility 	totalTime 	82.8
scalar RSUExampleScenario.node[639].veinsmobility 	stopTime 	2000
scalar RSUExampleScenario.node[639].veinsmobility 	minSpeed 	0.25520437615877
scalar RSUExampleScenario.node[639].veinsmobility 	maxSpeed 	13.999942178738
scalar RSUExampleScenario.node[639].veinsmobility 	totalDistance 	954.26015766162
scalar RSUExampleScenario.node[639].veinsmobility 	totalCO2Emission 	233.97973330817
scalar RSUExampleScenario.node[640].veinsmobility 	startTime 	1920.1
scalar RSUExampleScenario.node[640].veinsmobility 	totalTime 	79.8
scalar RSUExampleScenario.node[640].veinsmobility 	stopTime 	2000
scalar RSUExampleScenario.node[640].veinsmobility 	minSpeed 	0.2519455054542
scalar RSUExampleScenario.node[640].veinsmobility 	maxSpeed 	13.999874930694
scalar RSUExampleScenario.node[640].veinsmobility 	totalDistance 	937.10648731498
scalar RSUExampleScenario.node[640].veinsmobility 	totalCO2Emission 	220.87949684744
scalar RSUExampleScenario.node[641].veinsmobility 	startTime 	1923.1
scalar RSUExampleScenario.node[641].veinsmobility 	totalTime 	76.8
scalar RSUExampleScenario.node[641].veinsmobility 	stopTime 	2000
scalar RSUExampleScenario.node[641].veinsmobility 	minSpeed 	0.25120744707505
scalar RSUExampleScenario.node[641].veinsmobility 	maxSpeed 	13.999485055576
scalar RSUExampleScenario.node[641].veinsmobility 	totalDistance 	912.35024355591
scalar RSUExampleScenario.node[641].veinsmobility 	totalCO2Emission 	219.6061169733
scalar RSUExampleScenario.node[642].veinsmobility 	startTime 	1926.1
scalar RSUExampleScenario.node[642].veinsmobility 	totalTime 	73.8
scalar RSUExampleScenario.node[642].veinsmobility 	stopTime 	2000
scalar RSUExampleScenario.node[642].veinsmobility 	minSpeed 	0.24961322959326
scalar RSUExampleScenario.node[642].veinsmobility 	maxSpeed 	13.999711714224
scalar RSUExampleScenario.node[642].veinsmobility 	totalDistance 	871.82465097033
scalar RSUExampleScenario.node[642].veinsmobility 	totalCO2Emission 	213.70610198727
scalar RSUExampleScenario.node[643].veinsmobility 	startTime 	1929.1
scalar RSUExampleScenario.node[643].veinsmobility 	totalTime 	70.8
scalar RSUExampleScenario.node[643].veinsmobility 	stopTime 	2000
scalar RSUExampleScenario.node[643].veinsmobility 	minSpeed 	0.25299661617819
scalar RSUExampleScenario.node[643].veinsmobility 	maxSpeed 	13.999866007208
scalar RSUExampleScenario.node[643].veinsmobility 	totalDistance 	833.10347793673
scalar RSUExampleScenario.node[643].veinsmobility 	totalCO2Emission 	207.40257927619
scalar RSUExampleScenario.node[644].veinsmobility 	startTime 	1932.1
scalar RSUExampleScenario.node[644].veinsmobility 	totalTime 	67.8
scalar RSUExampleScenario.node[644].veinsmobility 	stopTime 	2000
scalar RSUExampleScenario.node[644].veinsmobility 	minSpeed 	0.25046815988538
scalar RSUExampleScenario.node[644].veinsmobility 	maxSpeed 	13.998934432373
scalar RSUExampleScenario.node[644].veinsmobility 	totalDistance 	790.9006909575
scalar RSUExampleScenario.node[644].veinsmobility 	totalCO2Emission 	198.17512783537
scalar RSUExampleScenario.node[645].veinsmobility 	startTime 	1935.1
scalar RSUExampleScenario.node[645].veinsmobility 	totalTime 	64.8
scalar RSUExampleScenario.node[645].veinsmobility 	stopTime 	2000
scalar RSUExampleScenario.node[645].veinsmobility 	minSpeed 	0.25810359586496
scalar RSUExampleScenario.node[645].veinsmobility 	maxSpeed 	13.999640782657
scalar RSUExampleScenario.node[645].veinsmobility 	totalDistance 	747.69582272755
scalar RSUExampleScenario.node[645].veinsmobility 	totalCO2Emission 	193.58747948102
scalar RSUExampleScenario.node[646].veinsmobility 	startTime 	1938.1
scalar RSUExampleScenario.node[646].veinsmobility 	totalTime 	61.8
scalar RSUExampleScenario.node[646].veinsmobility 	stopTime 	2000
scalar RSUExampleScenario.node[646].veinsmobility 	minSpeed 	0.24996093657287
scalar RSUExampleScenario.node[646].veinsmobility 	maxSpeed 	13.999937527911
scalar RSUExampleScenario.node[646].veinsmobility 	totalDistance 	705.43330361806
scalar RSUExampleScenario.node[646].veinsmobility 	totalCO2Emission 	185.08080613315
scalar RSUExampleScenario.node[647].veinsmobility 	startTime 	1941.1
scalar RSUExampleScenario.node[647].veinsmobility 	totalTime 	58.8
scalar RSUExampleScenario.node[647].veinsmobility 	stopTime 	2000
scalar RSUExampleScenario.node[647].veinsmobility 	minSpeed 	0.25159610279859
scalar RSUExampleScenario.node[647].veinsmobility 	maxSpeed 	13.999773519267
scalar RSUExampleScenario.node[647].veinsmobility 	totalDistance 	664.81676012376
scalar RSUExampleScenario.node[647].veinsmobility 	totalCO2Emission 	178.71382993065
scalar RSUExampleScenario.node[648].veinsmobility 	startTime 	1944.1
scalar RSUExampleScenario.node[648].veinsmobility 	totalTime 	55.8
scalar RSUExampleScenario.node[648].veinsmobility 	stopTime 	2000
scalar RSUExampleScenario.node[648].veinsmobility 	minSpeed 	0.25854689072003
scalar RSUExampleScenario.node[648].veinsmobility 	maxSpeed 	13.999707147481
scalar RSUExampleScenario.node[648].veinsmobility 	totalDistance 	621.90747500668
scalar RSUExampleScenario.node[648].veinsmobility 	totalCO2Emission 	173.20391312572
scalar RSUExampleScenario.node[649].veinsmobility 	startTime 	1947.1
scalar RSUExampleScenario.node[649].veinsmobility 	totalTime 	52.8
scalar RSUExampleScenario.node[649].veinsmobility 	stopTime 	2000
scalar RSUExampleScenario.node[649].veinsmobility 	minSpeed 	0.25505116385082
scalar RSUExampleScenario.node[649].veinsmobility 	maxSpeed 	13.999851578248
scalar RSUExampleScenario.node[649].veinsmobility 	totalDistance 	581.11171893937
scalar RSUExampleScenario.node[649].veinsmobility 	totalCO2Emission 	164.48173612929
scalar RSUExampleScenario.node[650].veinsmobility 	startTime 	1950.1
scalar RSUExampleScenario.node[650].veinsmobility 	totalTime 	49.8
scalar RSUExampleScenario.node[650].veinsmobility 	stopTime 	2000
scalar RSUExampleScenario.node[650].veinsmobility 	minSpeed 	0.24935389025533
scalar RSUExampleScenario.node[650].veinsmobility 	maxSpeed 	13.999796200853
scalar RSUExampleScenario.node[650].veinsmobility 	totalDistance 	540.06987695214
scalar RSUExampleScenario.node[650].veinsmobility 	totalCO2Emission 	156.61951739481
scalar RSUExampleScenario.node[651].veinsmobility 	startTime 	1953.1
scalar RSUExampleScenario.node[651].veinsmobility 	totalTime 	46.8
scalar RSUExampleScenario.node[651].veinsmobility 	stopTime 	2000
scalar RSUExampleScenario.node[651].veinsmobility 	minSpeed 	0.2470334470754
scalar RSUExampleScenario.node[651].veinsmobility 	maxSpeed 	13.999541481212
scalar RSUExampleScenario.node[651].veinsmobility 	totalDistance 	496.49214764862
scalar RSUExampleScenario.node[651].veinsmobility 	totalCO2Emission 	151.22383300354
scalar RSUExampleScenario.node[652].veinsmobility 	startTime 	1956.1
scalar RSUExampleScenario.node[652].veinsmobility 	totalTime 	43.8
scalar RSUExampleScenario.node[652].veinsmobility 	stopTime 	2000
scalar RSUExampleScenario.node[652].veinsmobility 	minSpeed 	0.25849297270807
scalar RSUExampleScenario.node[652].veinsmobility 	maxSpeed 	13.999499719869
scalar RSUExampleScenario.node[652].veinsmobility 	totalDistance 	455.81245796663
scalar RSUExampleScenario.node[652].veinsmobility 	totalCO2Emission 	142.83617264854
scalar RSUExampleScenario.node[653].veinsmobility 	startTime 	1959.1
scalar RSUExampleScenario.node[653].veinsmobility 	totalTime 	40.8
scalar RSUExampleScenario.node[653].veinsmobility 	stopTime 	2000
scalar RSUExampleScenario.node[653].veinsmobility 	minSpeed 	0.25228124190937
scalar RSUExampleScenario.node[653].veinsmobility 	maxSpeed 	13.999330999469
scalar RSUExampleScenario.node[653].veinsmobility 	totalDistance 	413.56148582247
scalar RSUExampleScenario.node[653].veinsmobility 	totalCO2Emission 	135.16649519902
scalar RSUExampleScenario.node[654].veinsmobility 	startTime 	1962.1
scalar RSUExampleScenario.node[654].veinsmobility 	totalTime 	37.8
scalar RSUExampleScenario.node[654].veinsmobility 	stopTime 	2000
scalar RSUExampleScenario.node[654].veinsmobility 	minSpeed 	0.25910406843992
scalar RSUExampleScenario.node[654].veinsmobility 	maxSpeed 	13.999226088822
scalar RSUExampleScenario.node[654].veinsmobility 	totalDistance 	370.19304410174
scalar RSUExampleScenario.node[654].veinsmobility 	totalCO2Emission 	129.16241922514
scalar RSUExampleScenario.node[655].veinsmobility 	startTime 	1965.1
scalar RSUExampleScenario.node[655].veinsmobility 	totalTime 	34.8
scalar RSUExampleScenario.node[655].veinsmobility 	stopTime 	2000
scalar RSUExampleScenario.node[655].veinsmobility 	minSpeed 	0.24812020511506
scalar RSUExampleScenario.node[655].veinsmobility 	maxSpeed 	13.997738273833
scalar RSUExampleScenario.node[655].veinsmobility 	totalDistance 	329.70210200499
scalar RSUExampleScenario.node[655].veinsmobility 	totalCO2Emission 	122.3076718092
scalar RSUExampleScenario.node[656].veinsmobility 	startTime 	1968.1
scalar RSUExampleScenario.node[656].veinsmobility 	totalTime 	31.8
scalar RSUExampleScenario.node[656].veinsmobility 	stopTime 	2000
scalar RSUExampleScenario.node[656].veinsmobility 	minSpeed 	0.25491156632709
scalar RSUExampleScenario.node[656].veinsmobility 	maxSpeed 	13.991826090692
scalar RSUExampleScenario.node[656].veinsmobility 	totalDistance 	287.20837119086
scalar RSUExampleScenario.node[656].veinsmobility 	totalCO2Emission 	115.635597487
scalar RSUExampleScenario.node[657].veinsmobility 	startTime 	1971.1
scalar RSUExampleScenario.node[657].veinsmobility 	totalTime 	28.8
scalar RSUExampleScenario.node[657].veinsmobility 	stopTime 	2000
scalar RSUExampleScenario.node[657].veinsmobility 	minSpeed 	0.24861526139127
scalar RSUExampleScenario.node[657].veinsmobility 	maxSpeed 	13.882218799528
scalar RSUExampleScenario.node[657].veinsmobility 	totalDistance 	247.89106788033
scalar RSUExampleScenario.node[657].veinsmobility 	totalCO2Emission 	97.746042630417
scalar RSUExampleScenario.node[658].veinsmobility 	startTime 	1974.1
scalar RSUExampleScenario.node[658].veinsmobility 	totalTime 	25.8
scalar RSUExampleScenario.node[658].veinsmobility 	stopTime 	2000
scalar RSUExampleScenario.node[658].veinsmobility 	minSpeed 	0.25079424260929
scalar RSUExampleScenario.node[658].veinsmobility 	maxSpeed 	13.889075079157
scalar RSUExampleScenario.node[658].veinsmobility 	totalDistance 	225.6802278405
scalar RSUExampleScenario.node[658].veinsmobility 	totalCO2Emission 	83.242067821701
scalar RSUExampleScenario.node[659].veinsmobility 	startTime 	1977.1
scalar RSUExampleScenario.node[659].veinsmobility 	totalTime 	22.8
scalar RSUExampleScenario.node[659].veinsmobility 	stopTime 	2000
scalar RSUExampleScenario.node[659].veinsmobility 	minSpeed 	0.25672652365244
scalar RSUExampleScenario.node[659].veinsmobility 	maxSpeed 	13.886792005587
scalar RSUExampleScenario.node[659].veinsmobility 	totalDistance 	207.36518956658
scalar RSUExampleScenario.node[659].veinsmobility 	totalCO2Emission 	78.284228893163
scalar RSUExampleScenario.node[660].veinsmobility 	startTime 	1980.1
scalar RSUExampleScenario.node[660].veinsmobility 	totalTime 	19.8
scalar RSUExampleScenario.node[660].veinsmobility 	stopTime 	2000
scalar RSUExampleScenario.node[660].veinsmobility 	minSpeed 	0.24703346974007
scalar RSUExampleScenario.node[660].veinsmobility 	maxSpeed 	13.886868646815
scalar RSUExampleScenario.node[660].veinsmobility 	totalDistance 	173.35357559059
scalar RSUExampleScenario.node[660].veinsmobility 	totalCO2Emission 	75.060727336715
scalar RSUExampleScenario.node[661].veinsmobility 	startTime 	1983.1
scalar RSUExampleScenario.node[661].veinsmobility 	totalTime 	16.8
scalar RSUExampleScenario.node[661].veinsmobility 	stopTime 	2000
scalar RSUExampleScenario.node[661].veinsmobility 	minSpeed 	0.25942456358811
scalar RSUExampleScenario.node[661].veinsmobility 	maxSpeed 	13.878489286425
scalar RSUExampleScenario.node[661].veinsmobility 	totalDistance 	136.94680375507
scalar RSUExampleScenario.node[661].veinsmobility 	totalCO2Emission 	58.292308026035
scalar RSUExampleScenario.node[662].veinsmobility 	startTime 	1986.1
scalar RSUExampleScenario.node[662].veinsmobility 	totalTime 	13.8
scalar RSUExampleScenario.node[662].veinsmobility 	stopTime 	2000
scalar RSUExampleScenario.node[662].veinsmobility 	minSpeed 	0.24758145793364
scalar RSUExampleScenario.node[662].veinsmobility 	maxSpeed 	13.888525706083
scalar RSUExampleScenario.node[662].veinsmobility 	totalDistance 	116.8402055184
scalar RSUExampleScenario.node[662].veinsmobility 	totalCO2Emission 	43.283685146994
scalar RSUExampleScenario.node[663].veinsmobility 	startTime 	1989.1
scalar RSUExampleScenario.node[663].veinsmobility 	totalTime 	10.8
scalar RSUExampleScenario.node[663].veinsmobility 	stopTime 	2000
scalar RSUExampleScenario.node[663].veinsmobility 	minSpeed 	0.25871400980745
scalar RSUExampleScenario.node[663].veinsmobility 	maxSpeed 	13.883136721535
scalar RSUExampleScenario.node[663].veinsmobility 	totalDistance 	96.79653349025
scalar RSUExampleScenario.node[663].veinsmobility 	totalCO2Emission 	39.5455768889
scalar RSUExampleScenario.node[664].veinsmobility 	startTime 	1992.1
scalar RSUExampleScenario.node[664].veinsmobility 	totalTime 	7.8
scalar RSUExampleScenario.node[664].veinsmobility 	stopTime 	2000
scalar RSUExampleScenario.node[664].veinsmobility 	minSpeed 	0.24803135177214
scalar RSUExampleScenario.node[664].veinsmobility 	maxSpeed 	13.86500302956
scalar RSUExampleScenario.node[664].veinsmobility 	totalDistance 	60.856453488783
scalar RSUExampleScenario.node[664].veinsmobility 	totalCO2Emission 	35.906354103304
scalar RSUExampleScenario.node[665].veinsmobility 	startTime 	1995.1
scalar RSUExampleScenario.node[665].veinsmobility 	totalTime 	4.8
scalar RSUExampleScenario.node[665].veinsmobility 	stopTime 	2000
scalar RSUExampleScenario.node[665].veinsmobility 	minSpeed 	0.25440948462184
scalar RSUExampleScenario.node[665].veinsmobility 	maxSpeed 	9.3638763945841
scalar RSUExampleScenario.node[665].veinsmobility 	totalDistance 	23.16621919914
scalar RSUExampleScenario.node[665].veinsmobility 	totalCO2Emission 	17.207279118038
scalar RSUExampleScenario.node[666].veinsmobility 	startTime 	1998.1
scalar RSUExampleScenario.node[666].veinsmobility 	totalTime 	1.8
scalar RSUExampleScenario.node[666].veinsmobility 	stopTime 	2000
scalar RSUExampleScenario.node[666].veinsmobility 	minSpeed 	0.25046984181972
scalar RSUExampleScenario.node[666].veinsmobility 	maxSpeed 	3.9011823918104
scalar RSUExampleScenario.node[666].veinsmobility 	totalDistance 	3.8594963089611
scalar RSUExampleScenario.node[666].veinsmobility 	totalCO2Emission 	3.9980581533198
