version 2
run statistic7-528-20150316-04:26:54-3648
attr c 6
attr configname statistic7
attr datetime 20150316-04:26:54
attr experiment statistic7
attr inifile omnetpp.ini
attr iterationvars "$p=1/2, $c=6"
attr iterationvars2 "$p=1/2, $c=6, $repetition=28"
attr measurement "$p=1/2, $c=6"
attr network RSUExampleScenario
attr p 1/2
attr processid 3648
attr repetition 28
attr replication #28
attr resultdir results
attr runnumber 528
attr seedset 528

scalar . 	c 	6
scalar RSUExampleScenario.rsu[0].appl 	NumberofCH 	53
scalar RSUExampleScenario.rsu[0].appl 	NumberofON 	47
scalar RSUExampleScenario.rsu[0].appl 	NumberofFN 	0
scalar RSUExampleScenario.rsu[0].appl 	meanClusterNodes 	53
scalar RSUExampleScenario.rsu[0].appl 	varClusterNodes 	7.2801098892805
scalar RSUExampleScenario.rsu[0].appl 	sumCHutility 	1146.8667191031
scalar RSUExampleScenario.rsu[0].appl 	meanCHutility 	53
scalar RSUExampleScenario.rsu[0].appl 	varCHutility 	7.2801098892805
scalar RSUExampleScenario.rsu[0].appl 	sumDiffCHutility 	652.31056982161
scalar RSUExampleScenario.rsu[0].appl 	meanDiffCHutility 	53
scalar RSUExampleScenario.rsu[0].appl 	varDiffCHutility 	7.2801098892805
scalar RSUExampleScenario.rsu[0].appl 	expectedCHutility 	1799.1772889247
scalar RSUExampleScenario.rsu[0].appl 	meanExpectedCHutility 	53
scalar RSUExampleScenario.rsu[0].appl 	varExpectedCHutility 	7.2801098892805
