version 2
run statistic-2151-20150313-06:50:40-27616
attr c 4
attr configname statistic
attr datetime 20150313-06:50:40
attr experiment statistic
attr inifile omnetpp.ini
attr iterationvars "$p=1/5, $c=4"
attr iterationvars2 "$p=1/5, $c=4, $repetition=51"
attr measurement "$p=1/5, $c=4"
attr network RSUExampleScenario
attr p 1/5
attr processid 27616
attr repetition 51
attr replication #51
attr resultdir results
attr runnumber 2151
attr seedset 2151

scalar . 	c 	4
scalar RSUExampleScenario.rsu[0].appl 	NumberofCH 	23
scalar RSUExampleScenario.rsu[0].appl 	NumberofON 	71
scalar RSUExampleScenario.rsu[0].appl 	NumberofFN 	6
scalar RSUExampleScenario.rsu[0].appl 	meanClusterNodes 	23
scalar RSUExampleScenario.rsu[0].appl 	varClusterNodes 	4.7958315233127
scalar RSUExampleScenario.rsu[0].appl 	sumCHutility 	903.53435625561
scalar RSUExampleScenario.rsu[0].appl 	meanCHutility 	23
scalar RSUExampleScenario.rsu[0].appl 	varCHutility 	4.7958315233127
scalar RSUExampleScenario.rsu[0].appl 	sumDiffCHutility 	-119.34445837129
scalar RSUExampleScenario.rsu[0].appl 	meanDiffCHutility 	23
scalar RSUExampleScenario.rsu[0].appl 	varDiffCHutility 	4.7958315233127
scalar RSUExampleScenario.rsu[0].appl 	expectedCHutility 	784.18989788431
scalar RSUExampleScenario.rsu[0].appl 	meanExpectedCHutility 	23
scalar RSUExampleScenario.rsu[0].appl 	varExpectedCHutility 	4.7958315233127
