version 2
run statisticLeach-564-20150323-11:33:45-12472
attr c 15
attr configname statisticLeach
attr datetime 20150323-11:33:45
attr experiment statisticLeach
attr inifile omnetpp.ini
attr iterationvars "$p=1/8, $c=15"
attr iterationvars2 "$p=1/8, $c=15, $repetition=4"
attr measurement "$p=1/8, $c=15"
attr network RSUExampleScenario
attr p 1/8
attr processid 12472
attr repetition 4
attr replication #4
attr resultdir results
attr runnumber 564
attr seedset 564

scalar . 	c 	15
scalar RSUExampleScenario.node[0].appl 	meanClusterNodes 	3.25
scalar RSUExampleScenario.node[0].appl 	meanClusterHeadUtility 	9.0712583181088
scalar RSUExampleScenario.node[0].appl 	NumberofCH 	0.10810810810811
scalar RSUExampleScenario.node[0].appl 	NumberofON 	0.37837837837838
scalar RSUExampleScenario.node[0].appl 	NumberofFN 	0.51351351351351
scalar RSUExampleScenario.node[0].veinsmobility 	startTime 	0.1
scalar RSUExampleScenario.node[0].veinsmobility 	totalTime 	449.9
scalar RSUExampleScenario.node[0].veinsmobility 	stopTime 	450
scalar RSUExampleScenario.node[0].veinsmobility 	minSpeed 	0
scalar RSUExampleScenario.node[0].veinsmobility 	maxSpeed 	13.999987563733
scalar RSUExampleScenario.node[0].veinsmobility 	totalDistance 	3136.2382374269
scalar RSUExampleScenario.node[0].veinsmobility 	totalCO2Emission 	840.11028686208
scalar RSUExampleScenario.node[1].appl 	meanClusterNodes 	1.5
scalar RSUExampleScenario.node[1].appl 	meanClusterHeadUtility 	8.7037345188145
scalar RSUExampleScenario.node[1].appl 	NumberofCH 	0.10810810810811
scalar RSUExampleScenario.node[1].appl 	NumberofON 	0.48648648648649
scalar RSUExampleScenario.node[1].appl 	NumberofFN 	0.40540540540541
scalar RSUExampleScenario.node[1].veinsmobility 	startTime 	2.5
scalar RSUExampleScenario.node[1].veinsmobility 	totalTime 	447.5
scalar RSUExampleScenario.node[1].veinsmobility 	stopTime 	450
scalar RSUExampleScenario.node[1].veinsmobility 	minSpeed 	0
scalar RSUExampleScenario.node[1].veinsmobility 	maxSpeed 	13.999948362396
scalar RSUExampleScenario.node[1].veinsmobility 	totalDistance 	3084.0992909569
scalar RSUExampleScenario.node[1].veinsmobility 	totalCO2Emission 	831.45166320404
scalar RSUExampleScenario.node[10].appl 	meanClusterNodes 	1.5
scalar RSUExampleScenario.node[10].appl 	meanClusterHeadUtility 	5.974566357936
scalar RSUExampleScenario.node[10].appl 	NumberofCH 	0.16216216216216
scalar RSUExampleScenario.node[10].appl 	NumberofON 	0.64864864864865
scalar RSUExampleScenario.node[10].appl 	NumberofFN 	0.18918918918919
scalar RSUExampleScenario.node[10].veinsmobility 	startTime 	24.2
scalar RSUExampleScenario.node[10].veinsmobility 	totalTime 	425.8
scalar RSUExampleScenario.node[10].veinsmobility 	stopTime 	450
scalar RSUExampleScenario.node[10].veinsmobility 	minSpeed 	0
scalar RSUExampleScenario.node[10].veinsmobility 	maxSpeed 	13.999985528211
scalar RSUExampleScenario.node[10].veinsmobility 	totalDistance 	2789.5245545455
scalar RSUExampleScenario.node[10].veinsmobility 	totalCO2Emission 	759.91079418402
scalar RSUExampleScenario.node[11].appl 	meanClusterNodes 	4.3333333333333
scalar RSUExampleScenario.node[11].appl 	meanClusterHeadUtility 	5.8907992728723
scalar RSUExampleScenario.node[11].appl 	NumberofCH 	0.16216216216216
scalar RSUExampleScenario.node[11].appl 	NumberofON 	0.62162162162162
scalar RSUExampleScenario.node[11].appl 	NumberofFN 	0.21621621621622
scalar RSUExampleScenario.node[11].veinsmobility 	startTime 	26.6
scalar RSUExampleScenario.node[11].veinsmobility 	totalTime 	423.4
scalar RSUExampleScenario.node[11].veinsmobility 	stopTime 	450
scalar RSUExampleScenario.node[11].veinsmobility 	minSpeed 	0
scalar RSUExampleScenario.node[11].veinsmobility 	maxSpeed 	13.999989784737
scalar RSUExampleScenario.node[11].veinsmobility 	totalDistance 	2758.1730807158
scalar RSUExampleScenario.node[11].veinsmobility 	totalCO2Emission 	753.48901956181
scalar RSUExampleScenario.node[12].appl 	meanClusterNodes 	4
scalar RSUExampleScenario.node[12].appl 	meanClusterHeadUtility 	12.051389791302
scalar RSUExampleScenario.node[12].appl 	NumberofCH 	0.081081081081081
scalar RSUExampleScenario.node[12].appl 	NumberofON 	0.81081081081081
scalar RSUExampleScenario.node[12].appl 	NumberofFN 	0.10810810810811
scalar RSUExampleScenario.node[12].veinsmobility 	startTime 	29
scalar RSUExampleScenario.node[12].veinsmobility 	totalTime 	421
scalar RSUExampleScenario.node[12].veinsmobility 	stopTime 	450
scalar RSUExampleScenario.node[12].veinsmobility 	minSpeed 	0
scalar RSUExampleScenario.node[12].veinsmobility 	maxSpeed 	13.999924093708
scalar RSUExampleScenario.node[12].veinsmobility 	totalDistance 	2718.4914390854
scalar RSUExampleScenario.node[12].veinsmobility 	totalCO2Emission 	748.19499298997
scalar RSUExampleScenario.node[13].appl 	meanClusterNodes 	2.8333333333333
scalar RSUExampleScenario.node[13].appl 	meanClusterHeadUtility 	5.5902003349926
scalar RSUExampleScenario.node[13].appl 	NumberofCH 	0.16216216216216
scalar RSUExampleScenario.node[13].appl 	NumberofON 	0.48648648648649
scalar RSUExampleScenario.node[13].appl 	NumberofFN 	0.35135135135135
scalar RSUExampleScenario.node[13].veinsmobility 	startTime 	31.4
scalar RSUExampleScenario.node[13].veinsmobility 	totalTime 	418.6
scalar RSUExampleScenario.node[13].veinsmobility 	stopTime 	450
scalar RSUExampleScenario.node[13].veinsmobility 	minSpeed 	0
scalar RSUExampleScenario.node[13].veinsmobility 	maxSpeed 	13.999697581043
scalar RSUExampleScenario.node[13].veinsmobility 	totalDistance 	2685.1034293795
scalar RSUExampleScenario.node[13].veinsmobility 	totalCO2Emission 	743.93921253368
scalar RSUExampleScenario.node[14].appl 	meanClusterNodes 	5
scalar RSUExampleScenario.node[14].appl 	meanClusterHeadUtility 	5.8805464625074
scalar RSUExampleScenario.node[14].appl 	NumberofCH 	0.16216216216216
scalar RSUExampleScenario.node[14].appl 	NumberofON 	0.56756756756757
scalar RSUExampleScenario.node[14].appl 	NumberofFN 	0.27027027027027
scalar RSUExampleScenario.node[14].veinsmobility 	startTime 	33.8
scalar RSUExampleScenario.node[14].veinsmobility 	totalTime 	416.2
scalar RSUExampleScenario.node[14].veinsmobility 	stopTime 	450
scalar RSUExampleScenario.node[14].veinsmobility 	minSpeed 	0
scalar RSUExampleScenario.node[14].veinsmobility 	maxSpeed 	13.999989366403
scalar RSUExampleScenario.node[14].veinsmobility 	totalDistance 	2649.4207401773
scalar RSUExampleScenario.node[14].veinsmobility 	totalCO2Emission 	737.69138782709
scalar RSUExampleScenario.node[15].appl 	meanClusterNodes 	3.8
scalar RSUExampleScenario.node[15].appl 	meanClusterHeadUtility 	6.6162747423182
scalar RSUExampleScenario.node[15].appl 	NumberofCH 	0.13513513513514
scalar RSUExampleScenario.node[15].appl 	NumberofON 	0.75675675675676
scalar RSUExampleScenario.node[15].appl 	NumberofFN 	0.10810810810811
scalar RSUExampleScenario.node[15].veinsmobility 	startTime 	36.2
scalar RSUExampleScenario.node[15].veinsmobility 	totalTime 	413.8
scalar RSUExampleScenario.node[15].veinsmobility 	stopTime 	450
scalar RSUExampleScenario.node[15].veinsmobility 	minSpeed 	0
scalar RSUExampleScenario.node[15].veinsmobility 	maxSpeed 	13.99998372097
scalar RSUExampleScenario.node[15].veinsmobility 	totalDistance 	2617.8328510111
scalar RSUExampleScenario.node[15].veinsmobility 	totalCO2Emission 	731.64479969137
scalar RSUExampleScenario.node[16].appl 	meanClusterNodes 	7.75
scalar RSUExampleScenario.node[16].appl 	meanClusterHeadUtility 	8.9621358424252
scalar RSUExampleScenario.node[16].appl 	NumberofCH 	0.10810810810811
scalar RSUExampleScenario.node[16].appl 	NumberofON 	0.67567567567568
scalar RSUExampleScenario.node[16].appl 	NumberofFN 	0.21621621621622
scalar RSUExampleScenario.node[16].veinsmobility 	startTime 	38.6
scalar RSUExampleScenario.node[16].veinsmobility 	totalTime 	411.4
scalar RSUExampleScenario.node[16].veinsmobility 	stopTime 	450
scalar RSUExampleScenario.node[16].veinsmobility 	minSpeed 	0
scalar RSUExampleScenario.node[16].veinsmobility 	maxSpeed 	13.999996653511
scalar RSUExampleScenario.node[16].veinsmobility 	totalDistance 	2579.5115247058
scalar RSUExampleScenario.node[16].veinsmobility 	totalCO2Emission 	722.20022758367
scalar RSUExampleScenario.node[17].appl 	meanClusterNodes 	2.8333333333333
scalar RSUExampleScenario.node[17].appl 	meanClusterHeadUtility 	5.4955529303221
scalar RSUExampleScenario.node[17].appl 	NumberofCH 	0.16216216216216
scalar RSUExampleScenario.node[17].appl 	NumberofON 	0.56756756756757
scalar RSUExampleScenario.node[17].appl 	NumberofFN 	0.27027027027027
scalar RSUExampleScenario.node[17].veinsmobility 	startTime 	41
scalar RSUExampleScenario.node[17].veinsmobility 	totalTime 	409
scalar RSUExampleScenario.node[17].veinsmobility 	stopTime 	450
scalar RSUExampleScenario.node[17].veinsmobility 	minSpeed 	0
scalar RSUExampleScenario.node[17].veinsmobility 	maxSpeed 	13.999928259763
scalar RSUExampleScenario.node[17].veinsmobility 	totalDistance 	2544.4355001228
scalar RSUExampleScenario.node[17].veinsmobility 	totalCO2Emission 	716.46733470925
scalar RSUExampleScenario.node[18].appl 	meanClusterNodes 	1.5
scalar RSUExampleScenario.node[18].appl 	meanClusterHeadUtility 	8.9238378723537
scalar RSUExampleScenario.node[18].appl 	NumberofCH 	0.10810810810811
scalar RSUExampleScenario.node[18].appl 	NumberofON 	0.62162162162162
scalar RSUExampleScenario.node[18].appl 	NumberofFN 	0.27027027027027
scalar RSUExampleScenario.node[18].veinsmobility 	startTime 	43.4
scalar RSUExampleScenario.node[18].veinsmobility 	totalTime 	406.6
scalar RSUExampleScenario.node[18].veinsmobility 	stopTime 	450
scalar RSUExampleScenario.node[18].veinsmobility 	minSpeed 	0
scalar RSUExampleScenario.node[18].veinsmobility 	maxSpeed 	13.999906833058
scalar RSUExampleScenario.node[18].veinsmobility 	totalDistance 	2505.2716419646
scalar RSUExampleScenario.node[18].veinsmobility 	totalCO2Emission 	707.18753650655
scalar RSUExampleScenario.node[19].appl 	meanClusterNodes 	5.6
scalar RSUExampleScenario.node[19].appl 	meanClusterHeadUtility 	6.6886530692653
scalar RSUExampleScenario.node[19].appl 	NumberofCH 	0.13513513513514
scalar RSUExampleScenario.node[19].appl 	NumberofON 	0.51351351351351
scalar RSUExampleScenario.node[19].appl 	NumberofFN 	0.35135135135135
scalar RSUExampleScenario.node[19].veinsmobility 	startTime 	45.8
scalar RSUExampleScenario.node[19].veinsmobility 	totalTime 	404.2
scalar RSUExampleScenario.node[19].veinsmobility 	stopTime 	450
scalar RSUExampleScenario.node[19].veinsmobility 	minSpeed 	0
scalar RSUExampleScenario.node[19].veinsmobility 	maxSpeed 	13.999940416233
scalar RSUExampleScenario.node[19].veinsmobility 	totalDistance 	2476.0557345877
scalar RSUExampleScenario.node[19].veinsmobility 	totalCO2Emission 	704.6260840676
scalar RSUExampleScenario.node[2].appl 	meanClusterNodes 	0.25
scalar RSUExampleScenario.node[2].appl 	meanClusterHeadUtility 	9.2149744728084
scalar RSUExampleScenario.node[2].appl 	NumberofCH 	0.10810810810811
scalar RSUExampleScenario.node[2].appl 	NumberofON 	0.2972972972973
scalar RSUExampleScenario.node[2].appl 	NumberofFN 	0.59459459459459
scalar RSUExampleScenario.node[2].veinsmobility 	startTime 	4.9
scalar RSUExampleScenario.node[2].veinsmobility 	totalTime 	445.1
scalar RSUExampleScenario.node[2].veinsmobility 	stopTime 	450
scalar RSUExampleScenario.node[2].veinsmobility 	minSpeed 	0
scalar RSUExampleScenario.node[2].veinsmobility 	maxSpeed 	13.999993019961
scalar RSUExampleScenario.node[2].veinsmobility 	totalDistance 	3036.6924405628
scalar RSUExampleScenario.node[2].veinsmobility 	totalCO2Emission 	819.20541731854
scalar RSUExampleScenario.node[20].appl 	meanClusterNodes 	5.5
scalar RSUExampleScenario.node[20].appl 	meanClusterHeadUtility 	8.7781771634533
scalar RSUExampleScenario.node[20].appl 	NumberofCH 	0.10810810810811
scalar RSUExampleScenario.node[20].appl 	NumberofON 	0.32432432432432
scalar RSUExampleScenario.node[20].appl 	NumberofFN 	0.56756756756757
scalar RSUExampleScenario.node[20].veinsmobility 	startTime 	48.3
scalar RSUExampleScenario.node[20].veinsmobility 	totalTime 	401.7
scalar RSUExampleScenario.node[20].veinsmobility 	stopTime 	450
scalar RSUExampleScenario.node[20].veinsmobility 	minSpeed 	0
scalar RSUExampleScenario.node[20].veinsmobility 	maxSpeed 	13.999953917358
scalar RSUExampleScenario.node[20].veinsmobility 	totalDistance 	2439.4229400227
scalar RSUExampleScenario.node[20].veinsmobility 	totalCO2Emission 	702.45923163589
scalar RSUExampleScenario.node[21].appl 	meanClusterNodes 	2
scalar RSUExampleScenario.node[21].appl 	meanClusterHeadUtility 	8.075867888446
scalar RSUExampleScenario.node[21].appl 	NumberofCH 	0.10810810810811
scalar RSUExampleScenario.node[21].appl 	NumberofON 	0.48648648648649
scalar RSUExampleScenario.node[21].appl 	NumberofFN 	0.40540540540541
scalar RSUExampleScenario.node[21].veinsmobility 	startTime 	50.7
scalar RSUExampleScenario.node[21].veinsmobility 	totalTime 	399.3
scalar RSUExampleScenario.node[21].veinsmobility 	stopTime 	450
scalar RSUExampleScenario.node[21].veinsmobility 	minSpeed 	0
scalar RSUExampleScenario.node[21].veinsmobility 	maxSpeed 	13.999820233027
scalar RSUExampleScenario.node[21].veinsmobility 	totalDistance 	2407.0661212119
scalar RSUExampleScenario.node[21].veinsmobility 	totalCO2Emission 	696.89991683883
scalar RSUExampleScenario.node[22].appl 	meanClusterNodes 	1.75
scalar RSUExampleScenario.node[22].appl 	meanClusterHeadUtility 	8.8561834570469
scalar RSUExampleScenario.node[22].appl 	NumberofCH 	0.10810810810811
scalar RSUExampleScenario.node[22].appl 	NumberofON 	0.64864864864865
scalar RSUExampleScenario.node[22].appl 	NumberofFN 	0.24324324324324
scalar RSUExampleScenario.node[22].veinsmobility 	startTime 	53.1
scalar RSUExampleScenario.node[22].veinsmobility 	totalTime 	396.9
scalar RSUExampleScenario.node[22].veinsmobility 	stopTime 	450
scalar RSUExampleScenario.node[22].veinsmobility 	minSpeed 	0
scalar RSUExampleScenario.node[22].veinsmobility 	maxSpeed 	13.999970519317
scalar RSUExampleScenario.node[22].veinsmobility 	totalDistance 	2370.8090135263
scalar RSUExampleScenario.node[22].veinsmobility 	totalCO2Emission 	689.28630683399
scalar RSUExampleScenario.node[23].appl 	meanClusterNodes 	1
scalar RSUExampleScenario.node[23].appl 	meanClusterHeadUtility 	9.1985088829946
scalar RSUExampleScenario.node[23].appl 	NumberofCH 	0.10810810810811
scalar RSUExampleScenario.node[23].appl 	NumberofON 	0.40540540540541
scalar RSUExampleScenario.node[23].appl 	NumberofFN 	0.48648648648649
scalar RSUExampleScenario.node[23].veinsmobility 	startTime 	55.5
scalar RSUExampleScenario.node[23].veinsmobility 	totalTime 	394.5
scalar RSUExampleScenario.node[23].veinsmobility 	stopTime 	450
scalar RSUExampleScenario.node[23].veinsmobility 	minSpeed 	0
scalar RSUExampleScenario.node[23].veinsmobility 	maxSpeed 	13.999965463777
scalar RSUExampleScenario.node[23].veinsmobility 	totalDistance 	2342.2635286241
scalar RSUExampleScenario.node[23].veinsmobility 	totalCO2Emission 	685.41990634442
scalar RSUExampleScenario.node[24].appl 	meanClusterNodes 	5
scalar RSUExampleScenario.node[24].appl 	meanClusterHeadUtility 	7.8557974631085
scalar RSUExampleScenario.node[24].appl 	NumberofCH 	0.10810810810811
scalar RSUExampleScenario.node[24].appl 	NumberofON 	0.40540540540541
scalar RSUExampleScenario.node[24].appl 	NumberofFN 	0.48648648648649
scalar RSUExampleScenario.node[24].veinsmobility 	startTime 	57.9
scalar RSUExampleScenario.node[24].veinsmobility 	totalTime 	392.1
scalar RSUExampleScenario.node[24].veinsmobility 	stopTime 	450
scalar RSUExampleScenario.node[24].veinsmobility 	minSpeed 	0
scalar RSUExampleScenario.node[24].veinsmobility 	maxSpeed 	13.999748016675
scalar RSUExampleScenario.node[24].veinsmobility 	totalDistance 	2304.5740597621
scalar RSUExampleScenario.node[24].veinsmobility 	totalCO2Emission 	675.81773371513
scalar RSUExampleScenario.node[25].appl 	meanClusterNodes 	3.75
scalar RSUExampleScenario.node[25].appl 	meanClusterHeadUtility 	8.0483861619743
scalar RSUExampleScenario.node[25].appl 	NumberofCH 	0.10810810810811
scalar RSUExampleScenario.node[25].appl 	NumberofON 	0.67567567567568
scalar RSUExampleScenario.node[25].appl 	NumberofFN 	0.21621621621622
scalar RSUExampleScenario.node[25].veinsmobility 	startTime 	60.3
scalar RSUExampleScenario.node[25].veinsmobility 	totalTime 	389.7
scalar RSUExampleScenario.node[25].veinsmobility 	stopTime 	450
scalar RSUExampleScenario.node[25].veinsmobility 	minSpeed 	0
scalar RSUExampleScenario.node[25].veinsmobility 	maxSpeed 	13.999813470917
scalar RSUExampleScenario.node[25].veinsmobility 	totalDistance 	2274.9071421705
scalar RSUExampleScenario.node[25].veinsmobility 	totalCO2Emission 	670.20838386371
scalar RSUExampleScenario.node[26].appl 	meanClusterNodes 	5.25
scalar RSUExampleScenario.node[26].appl 	meanClusterHeadUtility 	7.9336493440983
scalar RSUExampleScenario.node[26].appl 	NumberofCH 	0.10810810810811
scalar RSUExampleScenario.node[26].appl 	NumberofON 	0.81081081081081
scalar RSUExampleScenario.node[26].appl 	NumberofFN 	0.081081081081081
scalar RSUExampleScenario.node[26].veinsmobility 	startTime 	62.7
scalar RSUExampleScenario.node[26].veinsmobility 	totalTime 	387.3
scalar RSUExampleScenario.node[26].veinsmobility 	stopTime 	450
scalar RSUExampleScenario.node[26].veinsmobility 	minSpeed 	0
scalar RSUExampleScenario.node[26].veinsmobility 	maxSpeed 	13.999989787915
scalar RSUExampleScenario.node[26].veinsmobility 	totalDistance 	2237.3745492014
scalar RSUExampleScenario.node[26].veinsmobility 	totalCO2Emission 	663.75010776213
scalar RSUExampleScenario.node[27].appl 	meanClusterNodes 	6.8333333333333
scalar RSUExampleScenario.node[27].appl 	meanClusterHeadUtility 	5.2601671569975
scalar RSUExampleScenario.node[27].appl 	NumberofCH 	0.16216216216216
scalar RSUExampleScenario.node[27].appl 	NumberofON 	0.48648648648649
scalar RSUExampleScenario.node[27].appl 	NumberofFN 	0.35135135135135
scalar RSUExampleScenario.node[27].veinsmobility 	startTime 	65.1
scalar RSUExampleScenario.node[27].veinsmobility 	totalTime 	384.9
scalar RSUExampleScenario.node[27].veinsmobility 	stopTime 	450
scalar RSUExampleScenario.node[27].veinsmobility 	minSpeed 	0
scalar RSUExampleScenario.node[27].veinsmobility 	maxSpeed 	13.999898045778
scalar RSUExampleScenario.node[27].veinsmobility 	totalDistance 	2207.843791845
scalar RSUExampleScenario.node[27].veinsmobility 	totalCO2Emission 	661.77885932787
scalar RSUExampleScenario.node[28].appl 	meanClusterNodes 	2.8
scalar RSUExampleScenario.node[28].appl 	meanClusterHeadUtility 	6.0649135758581
scalar RSUExampleScenario.node[28].appl 	NumberofCH 	0.13513513513514
scalar RSUExampleScenario.node[28].appl 	NumberofON 	0.48648648648649
scalar RSUExampleScenario.node[28].appl 	NumberofFN 	0.37837837837838
scalar RSUExampleScenario.node[28].veinsmobility 	startTime 	67.5
scalar RSUExampleScenario.node[28].veinsmobility 	totalTime 	382.5
scalar RSUExampleScenario.node[28].veinsmobility 	stopTime 	450
scalar RSUExampleScenario.node[28].veinsmobility 	minSpeed 	0
scalar RSUExampleScenario.node[28].veinsmobility 	maxSpeed 	13.9997163277
scalar RSUExampleScenario.node[28].veinsmobility 	totalDistance 	2168.3555274513
scalar RSUExampleScenario.node[28].veinsmobility 	totalCO2Emission 	654.71044768294
scalar RSUExampleScenario.node[29].appl 	meanClusterNodes 	4.5
scalar RSUExampleScenario.node[29].appl 	meanClusterHeadUtility 	9.5768016037056
scalar RSUExampleScenario.node[29].appl 	NumberofCH 	0.10810810810811
scalar RSUExampleScenario.node[29].appl 	NumberofON 	0.83783783783784
scalar RSUExampleScenario.node[29].appl 	NumberofFN 	0.054054054054054
scalar RSUExampleScenario.node[29].veinsmobility 	startTime 	69.9
scalar RSUExampleScenario.node[29].veinsmobility 	totalTime 	380.1
scalar RSUExampleScenario.node[29].veinsmobility 	stopTime 	450
scalar RSUExampleScenario.node[29].veinsmobility 	minSpeed 	0
scalar RSUExampleScenario.node[29].veinsmobility 	maxSpeed 	13.999751769572
scalar RSUExampleScenario.node[29].veinsmobility 	totalDistance 	2137.3160433131
scalar RSUExampleScenario.node[29].veinsmobility 	totalCO2Emission 	650.6347203597
scalar RSUExampleScenario.node[3].appl 	meanClusterNodes 	0.83333333333333
scalar RSUExampleScenario.node[3].appl 	meanClusterHeadUtility 	5.9066956742142
scalar RSUExampleScenario.node[3].appl 	NumberofCH 	0.16216216216216
scalar RSUExampleScenario.node[3].appl 	NumberofON 	0.59459459459459
scalar RSUExampleScenario.node[3].appl 	NumberofFN 	0.24324324324324
scalar RSUExampleScenario.node[3].veinsmobility 	startTime 	7.3
scalar RSUExampleScenario.node[3].veinsmobility 	totalTime 	442.7
scalar RSUExampleScenario.node[3].veinsmobility 	stopTime 	450
scalar RSUExampleScenario.node[3].veinsmobility 	minSpeed 	0
scalar RSUExampleScenario.node[3].veinsmobility 	maxSpeed 	13.999919504174
scalar RSUExampleScenario.node[3].veinsmobility 	totalDistance 	2998.4243281635
scalar RSUExampleScenario.node[3].veinsmobility 	totalCO2Emission 	812.99646005935
scalar RSUExampleScenario.node[30].appl 	meanClusterNodes 	5
scalar RSUExampleScenario.node[30].appl 	meanClusterHeadUtility 	5.5723615789453
scalar RSUExampleScenario.node[30].appl 	NumberofCH 	0.16216216216216
scalar RSUExampleScenario.node[30].appl 	NumberofON 	0.48648648648649
scalar RSUExampleScenario.node[30].appl 	NumberofFN 	0.35135135135135
scalar RSUExampleScenario.node[30].veinsmobility 	startTime 	72.4
scalar RSUExampleScenario.node[30].veinsmobility 	totalTime 	377.6
scalar RSUExampleScenario.node[30].veinsmobility 	stopTime 	450
scalar RSUExampleScenario.node[30].veinsmobility 	minSpeed 	0
scalar RSUExampleScenario.node[30].veinsmobility 	maxSpeed 	13.999981826618
scalar RSUExampleScenario.node[30].veinsmobility 	totalDistance 	2100.722352777
scalar RSUExampleScenario.node[30].veinsmobility 	totalCO2Emission 	647.58509550512
scalar RSUExampleScenario.node[31].appl 	meanClusterNodes 	2
scalar RSUExampleScenario.node[31].appl 	meanClusterHeadUtility 	8.0274782035538
scalar RSUExampleScenario.node[31].appl 	NumberofCH 	0.10810810810811
scalar RSUExampleScenario.node[31].appl 	NumberofON 	0.81081081081081
scalar RSUExampleScenario.node[31].appl 	NumberofFN 	0.081081081081081
scalar RSUExampleScenario.node[31].veinsmobility 	startTime 	74.8
scalar RSUExampleScenario.node[31].veinsmobility 	totalTime 	375.2
scalar RSUExampleScenario.node[31].veinsmobility 	stopTime 	450
scalar RSUExampleScenario.node[31].veinsmobility 	minSpeed 	0
scalar RSUExampleScenario.node[31].veinsmobility 	maxSpeed 	13.999818959169
scalar RSUExampleScenario.node[31].veinsmobility 	totalDistance 	2067.9789966045
scalar RSUExampleScenario.node[31].veinsmobility 	totalCO2Emission 	640.27197249214
scalar RSUExampleScenario.node[32].appl 	meanClusterNodes 	2.75
scalar RSUExampleScenario.node[32].appl 	meanClusterHeadUtility 	8.4166452507645
scalar RSUExampleScenario.node[32].appl 	NumberofCH 	0.10810810810811
scalar RSUExampleScenario.node[32].appl 	NumberofON 	0.37837837837838
scalar RSUExampleScenario.node[32].appl 	NumberofFN 	0.51351351351351
scalar RSUExampleScenario.node[32].veinsmobility 	startTime 	77.2
scalar RSUExampleScenario.node[32].veinsmobility 	totalTime 	372.8
scalar RSUExampleScenario.node[32].veinsmobility 	stopTime 	450
scalar RSUExampleScenario.node[32].veinsmobility 	minSpeed 	0
scalar RSUExampleScenario.node[32].veinsmobility 	maxSpeed 	13.999927282955
scalar RSUExampleScenario.node[32].veinsmobility 	totalDistance 	2032.5689288557
scalar RSUExampleScenario.node[32].veinsmobility 	totalCO2Emission 	632.21824799815
scalar RSUExampleScenario.node[33].appl 	meanClusterNodes 	6.1666666666667
scalar RSUExampleScenario.node[33].appl 	meanClusterHeadUtility 	5.8870576264612
scalar RSUExampleScenario.node[33].appl 	NumberofCH 	0.16216216216216
scalar RSUExampleScenario.node[33].appl 	NumberofON 	0.72972972972973
scalar RSUExampleScenario.node[33].appl 	NumberofFN 	0.10810810810811
scalar RSUExampleScenario.node[33].veinsmobility 	startTime 	79.6
scalar RSUExampleScenario.node[33].veinsmobility 	totalTime 	370.4
scalar RSUExampleScenario.node[33].veinsmobility 	stopTime 	450
scalar RSUExampleScenario.node[33].veinsmobility 	minSpeed 	0
scalar RSUExampleScenario.node[33].veinsmobility 	maxSpeed 	13.999916577502
scalar RSUExampleScenario.node[33].veinsmobility 	totalDistance 	1998.4049784064
scalar RSUExampleScenario.node[33].veinsmobility 	totalCO2Emission 	623.34811797375
scalar RSUExampleScenario.node[34].appl 	meanClusterNodes 	4
scalar RSUExampleScenario.node[34].appl 	meanClusterHeadUtility 	6.1422776619333
scalar RSUExampleScenario.node[34].appl 	NumberofCH 	0.16216216216216
scalar RSUExampleScenario.node[34].appl 	NumberofON 	0.75675675675676
scalar RSUExampleScenario.node[34].appl 	NumberofFN 	0.081081081081081
scalar RSUExampleScenario.node[34].veinsmobility 	startTime 	82
scalar RSUExampleScenario.node[34].veinsmobility 	totalTime 	368
scalar RSUExampleScenario.node[34].veinsmobility 	stopTime 	450
scalar RSUExampleScenario.node[34].veinsmobility 	minSpeed 	0
scalar RSUExampleScenario.node[34].veinsmobility 	maxSpeed 	13.999991864632
scalar RSUExampleScenario.node[34].veinsmobility 	totalDistance 	1965.6253459419
scalar RSUExampleScenario.node[34].veinsmobility 	totalCO2Emission 	621.31752101591
scalar RSUExampleScenario.node[35].appl 	meanClusterNodes 	7
scalar RSUExampleScenario.node[35].appl 	meanClusterHeadUtility 	6.2965554926288
scalar RSUExampleScenario.node[35].appl 	NumberofCH 	0.13513513513514
scalar RSUExampleScenario.node[35].appl 	NumberofON 	0.51351351351351
scalar RSUExampleScenario.node[35].appl 	NumberofFN 	0.35135135135135
scalar RSUExampleScenario.node[35].veinsmobility 	startTime 	84.4
scalar RSUExampleScenario.node[35].veinsmobility 	totalTime 	365.6
scalar RSUExampleScenario.node[35].veinsmobility 	stopTime 	450
scalar RSUExampleScenario.node[35].veinsmobility 	minSpeed 	0
scalar RSUExampleScenario.node[35].veinsmobility 	maxSpeed 	13.99998721211
scalar RSUExampleScenario.node[35].veinsmobility 	totalDistance 	1933.7384943933
scalar RSUExampleScenario.node[35].veinsmobility 	totalCO2Emission 	618.04140534109
scalar RSUExampleScenario.node[36].appl 	meanClusterNodes 	5.75
scalar RSUExampleScenario.node[36].appl 	meanClusterHeadUtility 	8.9811923835488
scalar RSUExampleScenario.node[36].appl 	NumberofCH 	0.10810810810811
scalar RSUExampleScenario.node[36].appl 	NumberofON 	0.78378378378378
scalar RSUExampleScenario.node[36].appl 	NumberofFN 	0.10810810810811
scalar RSUExampleScenario.node[36].veinsmobility 	startTime 	86.8
scalar RSUExampleScenario.node[36].veinsmobility 	totalTime 	363.2
scalar RSUExampleScenario.node[36].veinsmobility 	stopTime 	450
scalar RSUExampleScenario.node[36].veinsmobility 	minSpeed 	0
scalar RSUExampleScenario.node[36].veinsmobility 	maxSpeed 	13.999830068729
scalar RSUExampleScenario.node[36].veinsmobility 	totalDistance 	1899.1758830691
scalar RSUExampleScenario.node[36].veinsmobility 	totalCO2Emission 	608.09869672867
scalar RSUExampleScenario.node[37].appl 	meanClusterNodes 	1.75
scalar RSUExampleScenario.node[37].appl 	meanClusterHeadUtility 	7.9109399972945
scalar RSUExampleScenario.node[37].appl 	NumberofCH 	0.10810810810811
scalar RSUExampleScenario.node[37].appl 	NumberofON 	0.78378378378378
scalar RSUExampleScenario.node[37].appl 	NumberofFN 	0.10810810810811
scalar RSUExampleScenario.node[37].veinsmobility 	startTime 	89.2
scalar RSUExampleScenario.node[37].veinsmobility 	totalTime 	360.8
scalar RSUExampleScenario.node[37].veinsmobility 	stopTime 	450
scalar RSUExampleScenario.node[37].veinsmobility 	minSpeed 	0
scalar RSUExampleScenario.node[37].veinsmobility 	maxSpeed 	13.99996071022
scalar RSUExampleScenario.node[37].veinsmobility 	totalDistance 	1865.052257122
scalar RSUExampleScenario.node[37].veinsmobility 	totalCO2Emission 	602.52814528037
scalar RSUExampleScenario.node[38].appl 	meanClusterNodes 	5.5
scalar RSUExampleScenario.node[38].appl 	meanClusterHeadUtility 	7.7093751008509
scalar RSUExampleScenario.node[38].appl 	NumberofCH 	0.10810810810811
scalar RSUExampleScenario.node[38].appl 	NumberofON 	0.37837837837838
scalar RSUExampleScenario.node[38].appl 	NumberofFN 	0.51351351351351
scalar RSUExampleScenario.node[38].veinsmobility 	startTime 	91.6
scalar RSUExampleScenario.node[38].veinsmobility 	totalTime 	358.4
scalar RSUExampleScenario.node[38].veinsmobility 	stopTime 	450
scalar RSUExampleScenario.node[38].veinsmobility 	minSpeed 	0
scalar RSUExampleScenario.node[38].veinsmobility 	maxSpeed 	13.99999607285
scalar RSUExampleScenario.node[38].veinsmobility 	totalDistance 	1831.5534816732
scalar RSUExampleScenario.node[38].veinsmobility 	totalCO2Emission 	595.69420342389
scalar RSUExampleScenario.node[39].appl 	meanClusterNodes 	8
scalar RSUExampleScenario.node[39].appl 	meanClusterHeadUtility 	5.6533096032697
scalar RSUExampleScenario.node[39].appl 	NumberofCH 	0.16216216216216
scalar RSUExampleScenario.node[39].appl 	NumberofON 	0.56756756756757
scalar RSUExampleScenario.node[39].appl 	NumberofFN 	0.27027027027027
scalar RSUExampleScenario.node[39].veinsmobility 	startTime 	94
scalar RSUExampleScenario.node[39].veinsmobility 	totalTime 	356
scalar RSUExampleScenario.node[39].veinsmobility 	stopTime 	450
scalar RSUExampleScenario.node[39].veinsmobility 	minSpeed 	0
scalar RSUExampleScenario.node[39].veinsmobility 	maxSpeed 	13.999940003166
scalar RSUExampleScenario.node[39].veinsmobility 	totalDistance 	1797.8593227327
scalar RSUExampleScenario.node[39].veinsmobility 	totalCO2Emission 	594.79462866149
scalar RSUExampleScenario.node[4].appl 	meanClusterNodes 	3.8333333333333
scalar RSUExampleScenario.node[4].appl 	meanClusterHeadUtility 	6.1288739471076
scalar RSUExampleScenario.node[4].appl 	NumberofCH 	0.16216216216216
scalar RSUExampleScenario.node[4].appl 	NumberofON 	0.45945945945946
scalar RSUExampleScenario.node[4].appl 	NumberofFN 	0.37837837837838
scalar RSUExampleScenario.node[4].veinsmobility 	startTime 	9.7
scalar RSUExampleScenario.node[4].veinsmobility 	totalTime 	440.3
scalar RSUExampleScenario.node[4].veinsmobility 	stopTime 	450
scalar RSUExampleScenario.node[4].veinsmobility 	minSpeed 	0
scalar RSUExampleScenario.node[4].veinsmobility 	maxSpeed 	13.999949249399
scalar RSUExampleScenario.node[4].veinsmobility 	totalDistance 	2947.6095232926
scalar RSUExampleScenario.node[4].veinsmobility 	totalCO2Emission 	798.01965775369
scalar RSUExampleScenario.node[40].appl 	meanClusterNodes 	5
scalar RSUExampleScenario.node[40].appl 	meanClusterHeadUtility 	5.3688055306768
scalar RSUExampleScenario.node[40].appl 	NumberofCH 	0.16216216216216
scalar RSUExampleScenario.node[40].appl 	NumberofON 	0.78378378378378
scalar RSUExampleScenario.node[40].appl 	NumberofFN 	0.054054054054054
scalar RSUExampleScenario.node[40].veinsmobility 	startTime 	96.5
scalar RSUExampleScenario.node[40].veinsmobility 	totalTime 	353.5
scalar RSUExampleScenario.node[40].veinsmobility 	stopTime 	450
scalar RSUExampleScenario.node[40].veinsmobility 	minSpeed 	0
scalar RSUExampleScenario.node[40].veinsmobility 	maxSpeed 	13.999792263897
scalar RSUExampleScenario.node[40].veinsmobility 	totalDistance 	1763.1647304864
scalar RSUExampleScenario.node[40].veinsmobility 	totalCO2Emission 	587.81329114606
scalar RSUExampleScenario.node[41].appl 	meanClusterNodes 	6.75
scalar RSUExampleScenario.node[41].appl 	meanClusterHeadUtility 	8.2832205940494
scalar RSUExampleScenario.node[41].appl 	NumberofCH 	0.10810810810811
scalar RSUExampleScenario.node[41].appl 	NumberofON 	0.40540540540541
scalar RSUExampleScenario.node[41].appl 	NumberofFN 	0.48648648648649
scalar RSUExampleScenario.node[41].veinsmobility 	startTime 	98.9
scalar RSUExampleScenario.node[41].veinsmobility 	totalTime 	351.1
scalar RSUExampleScenario.node[41].veinsmobility 	stopTime 	450
scalar RSUExampleScenario.node[41].veinsmobility 	minSpeed 	0
scalar RSUExampleScenario.node[41].veinsmobility 	maxSpeed 	13.999954360269
scalar RSUExampleScenario.node[41].veinsmobility 	totalDistance 	1730.4122474547
scalar RSUExampleScenario.node[41].veinsmobility 	totalCO2Emission 	581.64718241309
scalar RSUExampleScenario.node[42].appl 	meanClusterNodes 	5.5
scalar RSUExampleScenario.node[42].appl 	meanClusterHeadUtility 	5.2228464493949
scalar RSUExampleScenario.node[42].appl 	NumberofCH 	0.16216216216216
scalar RSUExampleScenario.node[42].appl 	NumberofON 	0.67567567567568
scalar RSUExampleScenario.node[42].appl 	NumberofFN 	0.16216216216216
scalar RSUExampleScenario.node[42].veinsmobility 	startTime 	101.3
scalar RSUExampleScenario.node[42].veinsmobility 	totalTime 	348.7
scalar RSUExampleScenario.node[42].veinsmobility 	stopTime 	450
scalar RSUExampleScenario.node[42].veinsmobility 	minSpeed 	0
scalar RSUExampleScenario.node[42].veinsmobility 	maxSpeed 	13.999915958703
scalar RSUExampleScenario.node[42].veinsmobility 	totalDistance 	1697.3552312944
scalar RSUExampleScenario.node[42].veinsmobility 	totalCO2Emission 	575.88165877583
scalar RSUExampleScenario.node[43].appl 	meanClusterNodes 	7.8
scalar RSUExampleScenario.node[43].appl 	meanClusterHeadUtility 	6.8321427745376
scalar RSUExampleScenario.node[43].appl 	NumberofCH 	0.13513513513514
scalar RSUExampleScenario.node[43].appl 	NumberofON 	0.62162162162162
scalar RSUExampleScenario.node[43].appl 	NumberofFN 	0.24324324324324
scalar RSUExampleScenario.node[43].veinsmobility 	startTime 	103.7
scalar RSUExampleScenario.node[43].veinsmobility 	totalTime 	346.3
scalar RSUExampleScenario.node[43].veinsmobility 	stopTime 	450
scalar RSUExampleScenario.node[43].veinsmobility 	minSpeed 	0
scalar RSUExampleScenario.node[43].veinsmobility 	maxSpeed 	13.999951435353
scalar RSUExampleScenario.node[43].veinsmobility 	totalDistance 	1663.7627000407
scalar RSUExampleScenario.node[43].veinsmobility 	totalCO2Emission 	571.50686420899
scalar RSUExampleScenario.node[44].appl 	meanClusterNodes 	3.6
scalar RSUExampleScenario.node[44].appl 	meanClusterHeadUtility 	7.3556066012994
scalar RSUExampleScenario.node[44].appl 	NumberofCH 	0.13513513513514
scalar RSUExampleScenario.node[44].appl 	NumberofON 	0.72972972972973
scalar RSUExampleScenario.node[44].appl 	NumberofFN 	0.13513513513514
scalar RSUExampleScenario.node[44].veinsmobility 	startTime 	106.1
scalar RSUExampleScenario.node[44].veinsmobility 	totalTime 	343.9
scalar RSUExampleScenario.node[44].veinsmobility 	stopTime 	450
scalar RSUExampleScenario.node[44].veinsmobility 	minSpeed 	0
scalar RSUExampleScenario.node[44].veinsmobility 	maxSpeed 	13.999356542681
scalar RSUExampleScenario.node[44].veinsmobility 	totalDistance 	1629.3691691642
scalar RSUExampleScenario.node[44].veinsmobility 	totalCO2Emission 	567.00343509622
scalar RSUExampleScenario.node[45].appl 	meanClusterNodes 	4
scalar RSUExampleScenario.node[45].appl 	meanClusterHeadUtility 	5.3821697577711
scalar RSUExampleScenario.node[45].appl 	NumberofCH 	0.16216216216216
scalar RSUExampleScenario.node[45].appl 	NumberofON 	0.81081081081081
scalar RSUExampleScenario.node[45].appl 	NumberofFN 	0.027027027027027
scalar RSUExampleScenario.node[45].veinsmobility 	startTime 	108.5
scalar RSUExampleScenario.node[45].veinsmobility 	totalTime 	341.5
scalar RSUExampleScenario.node[45].veinsmobility 	stopTime 	450
scalar RSUExampleScenario.node[45].veinsmobility 	minSpeed 	0
scalar RSUExampleScenario.node[45].veinsmobility 	maxSpeed 	13.999920301191
scalar RSUExampleScenario.node[45].veinsmobility 	totalDistance 	1595.2804325276
scalar RSUExampleScenario.node[45].veinsmobility 	totalCO2Emission 	558.54781396779
scalar RSUExampleScenario.node[46].appl 	meanClusterNodes 	6.5
scalar RSUExampleScenario.node[46].appl 	meanClusterHeadUtility 	8.6116373567499
scalar RSUExampleScenario.node[46].appl 	NumberofCH 	0.10810810810811
scalar RSUExampleScenario.node[46].appl 	NumberofON 	0.7027027027027
scalar RSUExampleScenario.node[46].appl 	NumberofFN 	0.18918918918919
scalar RSUExampleScenario.node[46].veinsmobility 	startTime 	110.9
scalar RSUExampleScenario.node[46].veinsmobility 	totalTime 	339.1
scalar RSUExampleScenario.node[46].veinsmobility 	stopTime 	450
scalar RSUExampleScenario.node[46].veinsmobility 	minSpeed 	0
scalar RSUExampleScenario.node[46].veinsmobility 	maxSpeed 	13.999945006676
scalar RSUExampleScenario.node[46].veinsmobility 	totalDistance 	1562.3865492622
scalar RSUExampleScenario.node[46].veinsmobility 	totalCO2Emission 	553.51776845369
scalar RSUExampleScenario.node[47].appl 	meanClusterNodes 	2
scalar RSUExampleScenario.node[47].appl 	meanClusterHeadUtility 	6.2837044564468
scalar RSUExampleScenario.node[47].appl 	NumberofCH 	0.13513513513514
scalar RSUExampleScenario.node[47].appl 	NumberofON 	0.75675675675676
scalar RSUExampleScenario.node[47].appl 	NumberofFN 	0.10810810810811
scalar RSUExampleScenario.node[47].veinsmobility 	startTime 	113.3
scalar RSUExampleScenario.node[47].veinsmobility 	totalTime 	336.7
scalar RSUExampleScenario.node[47].veinsmobility 	stopTime 	450
scalar RSUExampleScenario.node[47].veinsmobility 	minSpeed 	0
scalar RSUExampleScenario.node[47].veinsmobility 	maxSpeed 	13.999915880098
scalar RSUExampleScenario.node[47].veinsmobility 	totalDistance 	1527.8336604017
scalar RSUExampleScenario.node[47].veinsmobility 	totalCO2Emission 	547.77429379811
scalar RSUExampleScenario.node[48].appl 	meanClusterNodes 	3
scalar RSUExampleScenario.node[48].appl 	meanClusterHeadUtility 	9.6204828926206
scalar RSUExampleScenario.node[48].appl 	NumberofCH 	0.10810810810811
scalar RSUExampleScenario.node[48].appl 	NumberofON 	0.72972972972973
scalar RSUExampleScenario.node[48].appl 	NumberofFN 	0.16216216216216
scalar RSUExampleScenario.node[48].veinsmobility 	startTime 	115.7
scalar RSUExampleScenario.node[48].veinsmobility 	totalTime 	334.3
scalar RSUExampleScenario.node[48].veinsmobility 	stopTime 	450
scalar RSUExampleScenario.node[48].veinsmobility 	minSpeed 	0
scalar RSUExampleScenario.node[48].veinsmobility 	maxSpeed 	13.999999461169
scalar RSUExampleScenario.node[48].veinsmobility 	totalDistance 	1494.9972214664
scalar RSUExampleScenario.node[48].veinsmobility 	totalCO2Emission 	541.40054294726
scalar RSUExampleScenario.node[49].appl 	meanClusterNodes 	3.75
scalar RSUExampleScenario.node[49].appl 	meanClusterHeadUtility 	8.8161765934648
scalar RSUExampleScenario.node[49].appl 	NumberofCH 	0.10810810810811
scalar RSUExampleScenario.node[49].appl 	NumberofON 	0.86486486486486
scalar RSUExampleScenario.node[49].appl 	NumberofFN 	0.027027027027027
scalar RSUExampleScenario.node[49].veinsmobility 	startTime 	118.1
scalar RSUExampleScenario.node[49].veinsmobility 	totalTime 	331.9
scalar RSUExampleScenario.node[49].veinsmobility 	stopTime 	450
scalar RSUExampleScenario.node[49].veinsmobility 	minSpeed 	0
scalar RSUExampleScenario.node[49].veinsmobility 	maxSpeed 	13.999962874684
scalar RSUExampleScenario.node[49].veinsmobility 	totalDistance 	1461.5035132028
scalar RSUExampleScenario.node[49].veinsmobility 	totalCO2Emission 	534.8767220912
scalar RSUExampleScenario.node[5].appl 	meanClusterNodes 	1
scalar RSUExampleScenario.node[5].appl 	meanClusterHeadUtility 	9.4610841414731
scalar RSUExampleScenario.node[5].appl 	NumberofCH 	0.10810810810811
scalar RSUExampleScenario.node[5].appl 	NumberofON 	0.72972972972973
scalar RSUExampleScenario.node[5].appl 	NumberofFN 	0.16216216216216
scalar RSUExampleScenario.node[5].veinsmobility 	startTime 	12.1
scalar RSUExampleScenario.node[5].veinsmobility 	totalTime 	437.9
scalar RSUExampleScenario.node[5].veinsmobility 	stopTime 	450
scalar RSUExampleScenario.node[5].veinsmobility 	minSpeed 	0
scalar RSUExampleScenario.node[5].veinsmobility 	maxSpeed 	13.999961705885
scalar RSUExampleScenario.node[5].veinsmobility 	totalDistance 	2918.6889418501
scalar RSUExampleScenario.node[5].veinsmobility 	totalCO2Emission 	785.42835162759
scalar RSUExampleScenario.node[50].appl 	meanClusterNodes 	3.8333333333333
scalar RSUExampleScenario.node[50].appl 	meanClusterHeadUtility 	5.6187921094779
scalar RSUExampleScenario.node[50].appl 	NumberofCH 	0.16216216216216
scalar RSUExampleScenario.node[50].appl 	NumberofON 	0.75675675675676
scalar RSUExampleScenario.node[50].appl 	NumberofFN 	0.081081081081081
scalar RSUExampleScenario.node[50].veinsmobility 	startTime 	120.6
scalar RSUExampleScenario.node[50].veinsmobility 	totalTime 	329.4
scalar RSUExampleScenario.node[50].veinsmobility 	stopTime 	450
scalar RSUExampleScenario.node[50].veinsmobility 	minSpeed 	0
scalar RSUExampleScenario.node[50].veinsmobility 	maxSpeed 	13.999954963934
scalar RSUExampleScenario.node[50].veinsmobility 	totalDistance 	1427.8764989295
scalar RSUExampleScenario.node[50].veinsmobility 	totalCO2Emission 	530.58580512422
scalar RSUExampleScenario.node[51].appl 	meanClusterNodes 	4.5
scalar RSUExampleScenario.node[51].appl 	meanClusterHeadUtility 	8.4266379173573
scalar RSUExampleScenario.node[51].appl 	NumberofCH 	0.10810810810811
scalar RSUExampleScenario.node[51].appl 	NumberofON 	0.48648648648649
scalar RSUExampleScenario.node[51].appl 	NumberofFN 	0.40540540540541
scalar RSUExampleScenario.node[51].veinsmobility 	startTime 	123
scalar RSUExampleScenario.node[51].veinsmobility 	totalTime 	327
scalar RSUExampleScenario.node[51].veinsmobility 	stopTime 	450
scalar RSUExampleScenario.node[51].veinsmobility 	minSpeed 	0
scalar RSUExampleScenario.node[51].veinsmobility 	maxSpeed 	13.999941716758
scalar RSUExampleScenario.node[51].veinsmobility 	totalDistance 	1395.5965356975
scalar RSUExampleScenario.node[51].veinsmobility 	totalCO2Emission 	523.79426731341
scalar RSUExampleScenario.node[52].appl 	meanClusterNodes 	4
scalar RSUExampleScenario.node[52].appl 	meanClusterHeadUtility 	8.4082190973591
scalar RSUExampleScenario.node[52].appl 	NumberofCH 	0.10810810810811
scalar RSUExampleScenario.node[52].appl 	NumberofON 	0.83783783783784
scalar RSUExampleScenario.node[52].appl 	NumberofFN 	0.054054054054054
scalar RSUExampleScenario.node[52].veinsmobility 	startTime 	125.4
scalar RSUExampleScenario.node[52].veinsmobility 	totalTime 	324.6
scalar RSUExampleScenario.node[52].veinsmobility 	stopTime 	450
scalar RSUExampleScenario.node[52].veinsmobility 	minSpeed 	0
scalar RSUExampleScenario.node[52].veinsmobility 	maxSpeed 	13.999753148612
scalar RSUExampleScenario.node[52].veinsmobility 	totalDistance 	1362.0492896755
scalar RSUExampleScenario.node[52].veinsmobility 	totalCO2Emission 	520.30339720841
scalar RSUExampleScenario.node[53].appl 	meanClusterNodes 	2.5
scalar RSUExampleScenario.node[53].appl 	meanClusterHeadUtility 	8.3440661277175
scalar RSUExampleScenario.node[53].appl 	NumberofCH 	0.10810810810811
scalar RSUExampleScenario.node[53].appl 	NumberofON 	0.86486486486486
scalar RSUExampleScenario.node[53].appl 	NumberofFN 	0.027027027027027
scalar RSUExampleScenario.node[53].veinsmobility 	startTime 	127.8
scalar RSUExampleScenario.node[53].veinsmobility 	totalTime 	322.2
scalar RSUExampleScenario.node[53].veinsmobility 	stopTime 	450
scalar RSUExampleScenario.node[53].veinsmobility 	minSpeed 	0
scalar RSUExampleScenario.node[53].veinsmobility 	maxSpeed 	13.999982201064
scalar RSUExampleScenario.node[53].veinsmobility 	totalDistance 	1326.8455968005
scalar RSUExampleScenario.node[53].veinsmobility 	totalCO2Emission 	512.96370567086
scalar RSUExampleScenario.node[54].appl 	meanClusterNodes 	4.75
scalar RSUExampleScenario.node[54].appl 	meanClusterHeadUtility 	8.3079805694702
scalar RSUExampleScenario.node[54].appl 	NumberofCH 	0.10810810810811
scalar RSUExampleScenario.node[54].appl 	NumberofON 	0.72972972972973
scalar RSUExampleScenario.node[54].appl 	NumberofFN 	0.16216216216216
scalar RSUExampleScenario.node[54].veinsmobility 	startTime 	130.2
scalar RSUExampleScenario.node[54].veinsmobility 	totalTime 	319.8
scalar RSUExampleScenario.node[54].veinsmobility 	stopTime 	450
scalar RSUExampleScenario.node[54].veinsmobility 	minSpeed 	0
scalar RSUExampleScenario.node[54].veinsmobility 	maxSpeed 	13.999830928249
scalar RSUExampleScenario.node[54].veinsmobility 	totalDistance 	1294.1469412052
scalar RSUExampleScenario.node[54].veinsmobility 	totalCO2Emission 	508.92818230994
scalar RSUExampleScenario.node[55].appl 	meanClusterNodes 	3.3333333333333
scalar RSUExampleScenario.node[55].appl 	meanClusterHeadUtility 	5.7777752339715
scalar RSUExampleScenario.node[55].appl 	NumberofCH 	0.16216216216216
scalar RSUExampleScenario.node[55].appl 	NumberofON 	0.64864864864865
scalar RSUExampleScenario.node[55].appl 	NumberofFN 	0.18918918918919
scalar RSUExampleScenario.node[55].veinsmobility 	startTime 	132.6
scalar RSUExampleScenario.node[55].veinsmobility 	totalTime 	317.4
scalar RSUExampleScenario.node[55].veinsmobility 	stopTime 	450
scalar RSUExampleScenario.node[55].veinsmobility 	minSpeed 	0
scalar RSUExampleScenario.node[55].veinsmobility 	maxSpeed 	13.999894179497
scalar RSUExampleScenario.node[55].veinsmobility 	totalDistance 	1261.8451236028
scalar RSUExampleScenario.node[55].veinsmobility 	totalCO2Emission 	502.03702830345
scalar RSUExampleScenario.node[56].appl 	meanClusterNodes 	2.5
scalar RSUExampleScenario.node[56].appl 	meanClusterHeadUtility 	7.9110487686234
scalar RSUExampleScenario.node[56].appl 	NumberofCH 	0.10810810810811
scalar RSUExampleScenario.node[56].appl 	NumberofON 	0.72972972972973
scalar RSUExampleScenario.node[56].appl 	NumberofFN 	0.16216216216216
scalar RSUExampleScenario.node[56].veinsmobility 	startTime 	135
scalar RSUExampleScenario.node[56].veinsmobility 	totalTime 	315
scalar RSUExampleScenario.node[56].veinsmobility 	stopTime 	450
scalar RSUExampleScenario.node[56].veinsmobility 	minSpeed 	0
scalar RSUExampleScenario.node[56].veinsmobility 	maxSpeed 	13.999997889716
scalar RSUExampleScenario.node[56].veinsmobility 	totalDistance 	1227.0901944173
scalar RSUExampleScenario.node[56].veinsmobility 	totalCO2Emission 	497.72612111554
scalar RSUExampleScenario.node[57].appl 	meanClusterNodes 	4.6
scalar RSUExampleScenario.node[57].appl 	meanClusterHeadUtility 	6.4163085721222
scalar RSUExampleScenario.node[57].appl 	NumberofCH 	0.13513513513514
scalar RSUExampleScenario.node[57].appl 	NumberofON 	0.43243243243243
scalar RSUExampleScenario.node[57].appl 	NumberofFN 	0.43243243243243
scalar RSUExampleScenario.node[57].veinsmobility 	startTime 	137.4
scalar RSUExampleScenario.node[57].veinsmobility 	totalTime 	312.6
scalar RSUExampleScenario.node[57].veinsmobility 	stopTime 	450
scalar RSUExampleScenario.node[57].veinsmobility 	minSpeed 	0
scalar RSUExampleScenario.node[57].veinsmobility 	maxSpeed 	13.999769688612
scalar RSUExampleScenario.node[57].veinsmobility 	totalDistance 	1193.70095861
scalar RSUExampleScenario.node[57].veinsmobility 	totalCO2Emission 	491.35494552734
scalar RSUExampleScenario.node[58].appl 	meanClusterNodes 	4.1666666666667
scalar RSUExampleScenario.node[58].appl 	meanClusterHeadUtility 	5.9010648373384
scalar RSUExampleScenario.node[58].appl 	NumberofCH 	0.16216216216216
scalar RSUExampleScenario.node[58].appl 	NumberofON 	0.54054054054054
scalar RSUExampleScenario.node[58].appl 	NumberofFN 	0.2972972972973
scalar RSUExampleScenario.node[58].veinsmobility 	startTime 	139.8
scalar RSUExampleScenario.node[58].veinsmobility 	totalTime 	310.2
scalar RSUExampleScenario.node[58].veinsmobility 	stopTime 	450
scalar RSUExampleScenario.node[58].veinsmobility 	minSpeed 	0
scalar RSUExampleScenario.node[58].veinsmobility 	maxSpeed 	13.999958025662
scalar RSUExampleScenario.node[58].veinsmobility 	totalDistance 	1160.809130314
scalar RSUExampleScenario.node[58].veinsmobility 	totalCO2Emission 	484.34895461722
scalar RSUExampleScenario.node[59].appl 	meanClusterNodes 	4.5
scalar RSUExampleScenario.node[59].appl 	meanClusterHeadUtility 	7.7451587939288
scalar RSUExampleScenario.node[59].appl 	NumberofCH 	0.10810810810811
scalar RSUExampleScenario.node[59].appl 	NumberofON 	0.7027027027027
scalar RSUExampleScenario.node[59].appl 	NumberofFN 	0.18918918918919
scalar RSUExampleScenario.node[59].veinsmobility 	startTime 	142.2
scalar RSUExampleScenario.node[59].veinsmobility 	totalTime 	307.8
scalar RSUExampleScenario.node[59].veinsmobility 	stopTime 	450
scalar RSUExampleScenario.node[59].veinsmobility 	minSpeed 	0
scalar RSUExampleScenario.node[59].veinsmobility 	maxSpeed 	13.999348248346
scalar RSUExampleScenario.node[59].veinsmobility 	totalDistance 	1127.2890069331
scalar RSUExampleScenario.node[59].veinsmobility 	totalCO2Emission 	479.09235319236
scalar RSUExampleScenario.node[6].appl 	meanClusterNodes 	3
scalar RSUExampleScenario.node[6].appl 	meanClusterHeadUtility 	9.5999919250821
scalar RSUExampleScenario.node[6].appl 	NumberofCH 	0.10810810810811
scalar RSUExampleScenario.node[6].appl 	NumberofON 	0.51351351351351
scalar RSUExampleScenario.node[6].appl 	NumberofFN 	0.37837837837838
scalar RSUExampleScenario.node[6].veinsmobility 	startTime 	14.5
scalar RSUExampleScenario.node[6].veinsmobility 	totalTime 	435.5
scalar RSUExampleScenario.node[6].veinsmobility 	stopTime 	450
scalar RSUExampleScenario.node[6].veinsmobility 	minSpeed 	0
scalar RSUExampleScenario.node[6].veinsmobility 	maxSpeed 	13.999999084242
scalar RSUExampleScenario.node[6].veinsmobility 	totalDistance 	2901.9614767617
scalar RSUExampleScenario.node[6].veinsmobility 	totalCO2Emission 	781.02792893883
scalar RSUExampleScenario.node[60].appl 	meanClusterNodes 	4.5
scalar RSUExampleScenario.node[60].appl 	meanClusterHeadUtility 	5.7866025528082
scalar RSUExampleScenario.node[60].appl 	NumberofCH 	0.16216216216216
scalar RSUExampleScenario.node[60].appl 	NumberofON 	0.54054054054054
scalar RSUExampleScenario.node[60].appl 	NumberofFN 	0.2972972972973
scalar RSUExampleScenario.node[60].veinsmobility 	startTime 	144.7
scalar RSUExampleScenario.node[60].veinsmobility 	totalTime 	305.3
scalar RSUExampleScenario.node[60].veinsmobility 	stopTime 	450
scalar RSUExampleScenario.node[60].veinsmobility 	minSpeed 	0
scalar RSUExampleScenario.node[60].veinsmobility 	maxSpeed 	13.999876466068
scalar RSUExampleScenario.node[60].veinsmobility 	totalDistance 	1092.9222760418
scalar RSUExampleScenario.node[60].veinsmobility 	totalCO2Emission 	475.02529443787
scalar RSUExampleScenario.node[61].appl 	meanClusterNodes 	3
scalar RSUExampleScenario.node[61].appl 	meanClusterHeadUtility 	8.080976849589
scalar RSUExampleScenario.node[61].appl 	NumberofCH 	0.10810810810811
scalar RSUExampleScenario.node[61].appl 	NumberofON 	0.78378378378378
scalar RSUExampleScenario.node[61].appl 	NumberofFN 	0.10810810810811
scalar RSUExampleScenario.node[61].veinsmobility 	startTime 	147.1
scalar RSUExampleScenario.node[61].veinsmobility 	totalTime 	302.9
scalar RSUExampleScenario.node[61].veinsmobility 	stopTime 	450
scalar RSUExampleScenario.node[61].veinsmobility 	minSpeed 	0
scalar RSUExampleScenario.node[61].veinsmobility 	maxSpeed 	13.99995236004
scalar RSUExampleScenario.node[61].veinsmobility 	totalDistance 	1059.2922498858
scalar RSUExampleScenario.node[61].veinsmobility 	totalCO2Emission 	468.63853844707
scalar RSUExampleScenario.node[62].appl 	meanClusterNodes 	1
scalar RSUExampleScenario.node[62].appl 	meanClusterHeadUtility 	9.3849392003019
scalar RSUExampleScenario.node[62].appl 	NumberofCH 	0.10810810810811
scalar RSUExampleScenario.node[62].appl 	NumberofON 	0.64864864864865
scalar RSUExampleScenario.node[62].appl 	NumberofFN 	0.24324324324324
scalar RSUExampleScenario.node[62].veinsmobility 	startTime 	149.5
scalar RSUExampleScenario.node[62].veinsmobility 	totalTime 	300.5
scalar RSUExampleScenario.node[62].veinsmobility 	stopTime 	450
scalar RSUExampleScenario.node[62].veinsmobility 	minSpeed 	0
scalar RSUExampleScenario.node[62].veinsmobility 	maxSpeed 	13.999725013855
scalar RSUExampleScenario.node[62].veinsmobility 	totalDistance 	1024.8051532372
scalar RSUExampleScenario.node[62].veinsmobility 	totalCO2Emission 	462.06960199284
scalar RSUExampleScenario.node[63].appl 	meanClusterNodes 	5
scalar RSUExampleScenario.node[63].appl 	meanClusterHeadUtility 	9.2747556935478
scalar RSUExampleScenario.node[63].appl 	NumberofCH 	0.10810810810811
scalar RSUExampleScenario.node[63].appl 	NumberofON 	0.32432432432432
scalar RSUExampleScenario.node[63].appl 	NumberofFN 	0.56756756756757
scalar RSUExampleScenario.node[63].veinsmobility 	startTime 	151.9
scalar RSUExampleScenario.node[63].veinsmobility 	totalTime 	298.1
scalar RSUExampleScenario.node[63].veinsmobility 	stopTime 	450
scalar RSUExampleScenario.node[63].veinsmobility 	minSpeed 	0
scalar RSUExampleScenario.node[63].veinsmobility 	maxSpeed 	13.999477328795
scalar RSUExampleScenario.node[63].veinsmobility 	totalDistance 	988.56911656092
scalar RSUExampleScenario.node[63].veinsmobility 	totalCO2Emission 	451.65498921285
scalar RSUExampleScenario.node[64].appl 	meanClusterNodes 	2.75
scalar RSUExampleScenario.node[64].appl 	meanClusterHeadUtility 	8.1701239567241
scalar RSUExampleScenario.node[64].appl 	NumberofCH 	0.10810810810811
scalar RSUExampleScenario.node[64].appl 	NumberofON 	0.83783783783784
scalar RSUExampleScenario.node[64].appl 	NumberofFN 	0.054054054054054
scalar RSUExampleScenario.node[64].veinsmobility 	startTime 	154.3
scalar RSUExampleScenario.node[64].veinsmobility 	totalTime 	295.7
scalar RSUExampleScenario.node[64].veinsmobility 	stopTime 	450
scalar RSUExampleScenario.node[64].veinsmobility 	minSpeed 	0
scalar RSUExampleScenario.node[64].veinsmobility 	maxSpeed 	13.999994220117
scalar RSUExampleScenario.node[64].veinsmobility 	totalDistance 	954.60949886369
scalar RSUExampleScenario.node[64].veinsmobility 	totalCO2Emission 	434.59137684419
scalar RSUExampleScenario.node[65].appl 	meanClusterNodes 	5.2
scalar RSUExampleScenario.node[65].appl 	meanClusterHeadUtility 	7.1251494430872
scalar RSUExampleScenario.node[65].appl 	NumberofCH 	0.13513513513514
scalar RSUExampleScenario.node[65].appl 	NumberofON 	0.7027027027027
scalar RSUExampleScenario.node[65].appl 	NumberofFN 	0.16216216216216
scalar RSUExampleScenario.node[65].veinsmobility 	startTime 	156.7
scalar RSUExampleScenario.node[65].veinsmobility 	totalTime 	293.3
scalar RSUExampleScenario.node[65].veinsmobility 	stopTime 	450
scalar RSUExampleScenario.node[65].veinsmobility 	minSpeed 	0
scalar RSUExampleScenario.node[65].veinsmobility 	maxSpeed 	13.999957457895
scalar RSUExampleScenario.node[65].veinsmobility 	totalDistance 	940.59836910961
scalar RSUExampleScenario.node[65].veinsmobility 	totalCO2Emission 	428.73615908212
scalar RSUExampleScenario.node[66].appl 	meanClusterNodes 	7.2
scalar RSUExampleScenario.node[66].appl 	meanClusterHeadUtility 	7.4019445939468
scalar RSUExampleScenario.node[66].appl 	NumberofCH 	0.13513513513514
scalar RSUExampleScenario.node[66].appl 	NumberofON 	0.67567567567568
scalar RSUExampleScenario.node[66].appl 	NumberofFN 	0.18918918918919
scalar RSUExampleScenario.node[66].veinsmobility 	startTime 	159.1
scalar RSUExampleScenario.node[66].veinsmobility 	totalTime 	290.9
scalar RSUExampleScenario.node[66].veinsmobility 	stopTime 	450
scalar RSUExampleScenario.node[66].veinsmobility 	minSpeed 	0
scalar RSUExampleScenario.node[66].veinsmobility 	maxSpeed 	13.999541260316
scalar RSUExampleScenario.node[66].veinsmobility 	totalDistance 	928.31700078186
scalar RSUExampleScenario.node[66].veinsmobility 	totalCO2Emission 	424.33422876126
scalar RSUExampleScenario.node[67].appl 	meanClusterNodes 	3.5
scalar RSUExampleScenario.node[67].appl 	meanClusterHeadUtility 	5.9292059293776
scalar RSUExampleScenario.node[67].appl 	NumberofCH 	0.16216216216216
scalar RSUExampleScenario.node[67].appl 	NumberofON 	0.7027027027027
scalar RSUExampleScenario.node[67].appl 	NumberofFN 	0.13513513513514
scalar RSUExampleScenario.node[67].veinsmobility 	startTime 	161.5
scalar RSUExampleScenario.node[67].veinsmobility 	totalTime 	288.5
scalar RSUExampleScenario.node[67].veinsmobility 	stopTime 	450
scalar RSUExampleScenario.node[67].veinsmobility 	minSpeed 	0
scalar RSUExampleScenario.node[67].veinsmobility 	maxSpeed 	13.999451415224
scalar RSUExampleScenario.node[67].veinsmobility 	totalDistance 	913.18382866977
scalar RSUExampleScenario.node[67].veinsmobility 	totalCO2Emission 	422.43720221049
scalar RSUExampleScenario.node[68].appl 	meanClusterNodes 	2.1666666666667
scalar RSUExampleScenario.node[68].appl 	meanClusterHeadUtility 	5.4824274986572
scalar RSUExampleScenario.node[68].appl 	NumberofCH 	0.16216216216216
scalar RSUExampleScenario.node[68].appl 	NumberofON 	0.56756756756757
scalar RSUExampleScenario.node[68].appl 	NumberofFN 	0.27027027027027
scalar RSUExampleScenario.node[68].veinsmobility 	startTime 	163.9
scalar RSUExampleScenario.node[68].veinsmobility 	totalTime 	286.1
scalar RSUExampleScenario.node[68].veinsmobility 	stopTime 	450
scalar RSUExampleScenario.node[68].veinsmobility 	minSpeed 	0
scalar RSUExampleScenario.node[68].veinsmobility 	maxSpeed 	13.999560991379
scalar RSUExampleScenario.node[68].veinsmobility 	totalDistance 	893.96083403369
scalar RSUExampleScenario.node[68].veinsmobility 	totalCO2Emission 	419.50567425585
scalar RSUExampleScenario.node[69].appl 	meanClusterNodes 	6.5
scalar RSUExampleScenario.node[69].appl 	meanClusterHeadUtility 	5.7843907781339
scalar RSUExampleScenario.node[69].appl 	NumberofCH 	0.16216216216216
scalar RSUExampleScenario.node[69].appl 	NumberofON 	0.45945945945946
scalar RSUExampleScenario.node[69].appl 	NumberofFN 	0.37837837837838
scalar RSUExampleScenario.node[69].veinsmobility 	startTime 	166.3
scalar RSUExampleScenario.node[69].veinsmobility 	totalTime 	283.7
scalar RSUExampleScenario.node[69].veinsmobility 	stopTime 	450
scalar RSUExampleScenario.node[69].veinsmobility 	minSpeed 	0
scalar RSUExampleScenario.node[69].veinsmobility 	maxSpeed 	13.999840696
scalar RSUExampleScenario.node[69].veinsmobility 	totalDistance 	860.26296985241
scalar RSUExampleScenario.node[69].veinsmobility 	totalCO2Emission 	413.53860915095
scalar RSUExampleScenario.node[7].appl 	meanClusterNodes 	4.3333333333333
scalar RSUExampleScenario.node[7].appl 	meanClusterHeadUtility 	6.7148857216311
scalar RSUExampleScenario.node[7].appl 	NumberofCH 	0.16216216216216
scalar RSUExampleScenario.node[7].appl 	NumberofON 	0.21621621621622
scalar RSUExampleScenario.node[7].appl 	NumberofFN 	0.62162162162162
scalar RSUExampleScenario.node[7].veinsmobility 	startTime 	16.9
scalar RSUExampleScenario.node[7].veinsmobility 	totalTime 	433.1
scalar RSUExampleScenario.node[7].veinsmobility 	stopTime 	450
scalar RSUExampleScenario.node[7].veinsmobility 	minSpeed 	0
scalar RSUExampleScenario.node[7].veinsmobility 	maxSpeed 	13.999941029765
scalar RSUExampleScenario.node[7].veinsmobility 	totalDistance 	2890.021136768
scalar RSUExampleScenario.node[7].veinsmobility 	totalCO2Emission 	774.6042798481
scalar RSUExampleScenario.node[70].appl 	meanClusterNodes 	2.2
scalar RSUExampleScenario.node[70].appl 	meanClusterHeadUtility 	6.3595834353812
scalar RSUExampleScenario.node[70].appl 	NumberofCH 	0.13513513513514
scalar RSUExampleScenario.node[70].appl 	NumberofON 	0.75675675675676
scalar RSUExampleScenario.node[70].appl 	NumberofFN 	0.10810810810811
scalar RSUExampleScenario.node[70].veinsmobility 	startTime 	168.8
scalar RSUExampleScenario.node[70].veinsmobility 	totalTime 	281.2
scalar RSUExampleScenario.node[70].veinsmobility 	stopTime 	450
scalar RSUExampleScenario.node[70].veinsmobility 	minSpeed 	0
scalar RSUExampleScenario.node[70].veinsmobility 	maxSpeed 	13.999619694378
scalar RSUExampleScenario.node[70].veinsmobility 	totalDistance 	826.64892099865
scalar RSUExampleScenario.node[70].veinsmobility 	totalCO2Emission 	406.29986561303
scalar RSUExampleScenario.node[71].appl 	meanClusterNodes 	2.75
scalar RSUExampleScenario.node[71].appl 	meanClusterHeadUtility 	8.416573453261
scalar RSUExampleScenario.node[71].appl 	NumberofCH 	0.10810810810811
scalar RSUExampleScenario.node[71].appl 	NumberofON 	0.83783783783784
scalar RSUExampleScenario.node[71].appl 	NumberofFN 	0.054054054054054
scalar RSUExampleScenario.node[71].veinsmobility 	startTime 	171.2
scalar RSUExampleScenario.node[71].veinsmobility 	totalTime 	278.8
scalar RSUExampleScenario.node[71].veinsmobility 	stopTime 	450
scalar RSUExampleScenario.node[71].veinsmobility 	minSpeed 	0
scalar RSUExampleScenario.node[71].veinsmobility 	maxSpeed 	13.99948350077
scalar RSUExampleScenario.node[71].veinsmobility 	totalDistance 	792.79005159851
scalar RSUExampleScenario.node[71].veinsmobility 	totalCO2Emission 	402.24253316094
scalar RSUExampleScenario.node[72].appl 	meanClusterNodes 	0
scalar RSUExampleScenario.node[72].appl 	meanClusterHeadUtility 	0
scalar RSUExampleScenario.node[72].appl 	NumberofCH 	0.10810810810811
scalar RSUExampleScenario.node[72].appl 	NumberofON 	0
scalar RSUExampleScenario.node[72].appl 	NumberofFN 	0.89189189189189
scalar RSUExampleScenario.node[72].veinsmobility 	startTime 	173.6
scalar RSUExampleScenario.node[72].veinsmobility 	totalTime 	276.4
scalar RSUExampleScenario.node[72].veinsmobility 	stopTime 	450
scalar RSUExampleScenario.node[72].veinsmobility 	minSpeed 	0
scalar RSUExampleScenario.node[72].veinsmobility 	maxSpeed 	13.999882880489
scalar RSUExampleScenario.node[72].veinsmobility 	totalDistance 	759.83945389769
scalar RSUExampleScenario.node[72].veinsmobility 	totalCO2Emission 	394.46895181667
scalar RSUExampleScenario.node[73].appl 	meanClusterNodes 	0
scalar RSUExampleScenario.node[73].appl 	meanClusterHeadUtility 	0
scalar RSUExampleScenario.node[73].appl 	NumberofCH 	0.10810810810811
scalar RSUExampleScenario.node[73].appl 	NumberofON 	0
scalar RSUExampleScenario.node[73].appl 	NumberofFN 	0.89189189189189
scalar RSUExampleScenario.node[73].veinsmobility 	startTime 	176
scalar RSUExampleScenario.node[73].veinsmobility 	totalTime 	274
scalar RSUExampleScenario.node[73].veinsmobility 	stopTime 	450
scalar RSUExampleScenario.node[73].veinsmobility 	minSpeed 	0
scalar RSUExampleScenario.node[73].veinsmobility 	maxSpeed 	13.999555024197
scalar RSUExampleScenario.node[73].veinsmobility 	totalDistance 	726.09937525181
scalar RSUExampleScenario.node[73].veinsmobility 	totalCO2Emission 	390.294594655
scalar RSUExampleScenario.node[74].appl 	meanClusterNodes 	2.75
scalar RSUExampleScenario.node[74].appl 	meanClusterHeadUtility 	8.9060239969981
scalar RSUExampleScenario.node[74].appl 	NumberofCH 	0.10810810810811
scalar RSUExampleScenario.node[74].appl 	NumberofON 	0.75675675675676
scalar RSUExampleScenario.node[74].appl 	NumberofFN 	0.13513513513514
scalar RSUExampleScenario.node[74].veinsmobility 	startTime 	178.4
scalar RSUExampleScenario.node[74].veinsmobility 	totalTime 	271.6
scalar RSUExampleScenario.node[74].veinsmobility 	stopTime 	450
scalar RSUExampleScenario.node[74].veinsmobility 	minSpeed 	0
scalar RSUExampleScenario.node[74].veinsmobility 	maxSpeed 	13.999897169096
scalar RSUExampleScenario.node[74].veinsmobility 	totalDistance 	691.13241739575
scalar RSUExampleScenario.node[74].veinsmobility 	totalCO2Emission 	385.73603645331
scalar RSUExampleScenario.node[75].appl 	meanClusterNodes 	5.5
scalar RSUExampleScenario.node[75].appl 	meanClusterHeadUtility 	5.8400749301618
scalar RSUExampleScenario.node[75].appl 	NumberofCH 	0.16216216216216
scalar RSUExampleScenario.node[75].appl 	NumberofON 	0.62162162162162
scalar RSUExampleScenario.node[75].appl 	NumberofFN 	0.21621621621622
scalar RSUExampleScenario.node[75].veinsmobility 	startTime 	180.8
scalar RSUExampleScenario.node[75].veinsmobility 	totalTime 	269.2
scalar RSUExampleScenario.node[75].veinsmobility 	stopTime 	450
scalar RSUExampleScenario.node[75].veinsmobility 	minSpeed 	0
scalar RSUExampleScenario.node[75].veinsmobility 	maxSpeed 	13.999849982399
scalar RSUExampleScenario.node[75].veinsmobility 	totalDistance 	655.18407894339
scalar RSUExampleScenario.node[75].veinsmobility 	totalCO2Emission 	379.09323209774
scalar RSUExampleScenario.node[76].appl 	meanClusterNodes 	5
scalar RSUExampleScenario.node[76].appl 	meanClusterHeadUtility 	8.4993931706113
scalar RSUExampleScenario.node[76].appl 	NumberofCH 	0.10810810810811
scalar RSUExampleScenario.node[76].appl 	NumberofON 	0.72972972972973
scalar RSUExampleScenario.node[76].appl 	NumberofFN 	0.16216216216216
scalar RSUExampleScenario.node[76].veinsmobility 	startTime 	183.2
scalar RSUExampleScenario.node[76].veinsmobility 	totalTime 	266.8
scalar RSUExampleScenario.node[76].veinsmobility 	stopTime 	450
scalar RSUExampleScenario.node[76].veinsmobility 	minSpeed 	0
scalar RSUExampleScenario.node[76].veinsmobility 	maxSpeed 	13.999551826143
scalar RSUExampleScenario.node[76].veinsmobility 	totalDistance 	621.67861248559
scalar RSUExampleScenario.node[76].veinsmobility 	totalCO2Emission 	373.39279014687
scalar RSUExampleScenario.node[77].appl 	meanClusterNodes 	4
scalar RSUExampleScenario.node[77].appl 	meanClusterHeadUtility 	8.1760642624194
scalar RSUExampleScenario.node[77].appl 	NumberofCH 	0.10810810810811
scalar RSUExampleScenario.node[77].appl 	NumberofON 	0.56756756756757
scalar RSUExampleScenario.node[77].appl 	NumberofFN 	0.32432432432432
scalar RSUExampleScenario.node[77].veinsmobility 	startTime 	185.6
scalar RSUExampleScenario.node[77].veinsmobility 	totalTime 	264.4
scalar RSUExampleScenario.node[77].veinsmobility 	stopTime 	450
scalar RSUExampleScenario.node[77].veinsmobility 	minSpeed 	0
scalar RSUExampleScenario.node[77].veinsmobility 	maxSpeed 	13.99951740969
scalar RSUExampleScenario.node[77].veinsmobility 	totalDistance 	590.65432534152
scalar RSUExampleScenario.node[77].veinsmobility 	totalCO2Emission 	367.75878978232
scalar RSUExampleScenario.node[78].appl 	meanClusterNodes 	3.5
scalar RSUExampleScenario.node[78].appl 	meanClusterHeadUtility 	5.158773841359
scalar RSUExampleScenario.node[78].appl 	NumberofCH 	0.16216216216216
scalar RSUExampleScenario.node[78].appl 	NumberofON 	0.64864864864865
scalar RSUExampleScenario.node[78].appl 	NumberofFN 	0.18918918918919
scalar RSUExampleScenario.node[78].veinsmobility 	startTime 	188
scalar RSUExampleScenario.node[78].veinsmobility 	totalTime 	262
scalar RSUExampleScenario.node[78].veinsmobility 	stopTime 	450
scalar RSUExampleScenario.node[78].veinsmobility 	minSpeed 	0
scalar RSUExampleScenario.node[78].veinsmobility 	maxSpeed 	13.999338221289
scalar RSUExampleScenario.node[78].veinsmobility 	totalDistance 	556.43533551631
scalar RSUExampleScenario.node[78].veinsmobility 	totalCO2Emission 	362.32731365491
scalar RSUExampleScenario.node[79].appl 	meanClusterNodes 	6.5
scalar RSUExampleScenario.node[79].appl 	meanClusterHeadUtility 	8.6975581307923
scalar RSUExampleScenario.node[79].appl 	NumberofCH 	0.10810810810811
scalar RSUExampleScenario.node[79].appl 	NumberofON 	0.51351351351351
scalar RSUExampleScenario.node[79].appl 	NumberofFN 	0.37837837837838
scalar RSUExampleScenario.node[79].veinsmobility 	startTime 	190.4
scalar RSUExampleScenario.node[79].veinsmobility 	totalTime 	259.6
scalar RSUExampleScenario.node[79].veinsmobility 	stopTime 	450
scalar RSUExampleScenario.node[79].veinsmobility 	minSpeed 	0
scalar RSUExampleScenario.node[79].veinsmobility 	maxSpeed 	13.997990055149
scalar RSUExampleScenario.node[79].veinsmobility 	totalDistance 	521.80392680508
scalar RSUExampleScenario.node[79].veinsmobility 	totalCO2Emission 	356.13754278964
scalar RSUExampleScenario.node[8].appl 	meanClusterNodes 	4.3333333333333
scalar RSUExampleScenario.node[8].appl 	meanClusterHeadUtility 	11.922904890463
scalar RSUExampleScenario.node[8].appl 	NumberofCH 	0.081081081081081
scalar RSUExampleScenario.node[8].appl 	NumberofON 	0.32432432432432
scalar RSUExampleScenario.node[8].appl 	NumberofFN 	0.59459459459459
scalar RSUExampleScenario.node[8].veinsmobility 	startTime 	19.3
scalar RSUExampleScenario.node[8].veinsmobility 	totalTime 	430.7
scalar RSUExampleScenario.node[8].veinsmobility 	stopTime 	450
scalar RSUExampleScenario.node[8].veinsmobility 	minSpeed 	0
scalar RSUExampleScenario.node[8].veinsmobility 	maxSpeed 	13.99999396862
scalar RSUExampleScenario.node[8].veinsmobility 	totalDistance 	2861.0985370904
scalar RSUExampleScenario.node[8].veinsmobility 	totalCO2Emission 	767.23501748671
scalar RSUExampleScenario.node[80].appl 	meanClusterNodes 	2.75
scalar RSUExampleScenario.node[80].appl 	meanClusterHeadUtility 	8.3868055784095
scalar RSUExampleScenario.node[80].appl 	NumberofCH 	0.10810810810811
scalar RSUExampleScenario.node[80].appl 	NumberofON 	0.72972972972973
scalar RSUExampleScenario.node[80].appl 	NumberofFN 	0.16216216216216
scalar RSUExampleScenario.node[80].veinsmobility 	startTime 	192.9
scalar RSUExampleScenario.node[80].veinsmobility 	totalTime 	257.1
scalar RSUExampleScenario.node[80].veinsmobility 	stopTime 	450
scalar RSUExampleScenario.node[80].veinsmobility 	minSpeed 	0
scalar RSUExampleScenario.node[80].veinsmobility 	maxSpeed 	13.999643072733
scalar RSUExampleScenario.node[80].veinsmobility 	totalDistance 	489.31712552318
scalar RSUExampleScenario.node[80].veinsmobility 	totalCO2Emission 	351.12136405442
scalar RSUExampleScenario.node[81].appl 	meanClusterNodes 	5.75
scalar RSUExampleScenario.node[81].appl 	meanClusterHeadUtility 	8.449420483613
scalar RSUExampleScenario.node[81].appl 	NumberofCH 	0.10810810810811
scalar RSUExampleScenario.node[81].appl 	NumberofON 	0.35135135135135
scalar RSUExampleScenario.node[81].appl 	NumberofFN 	0.54054054054054
scalar RSUExampleScenario.node[81].veinsmobility 	startTime 	195.3
scalar RSUExampleScenario.node[81].veinsmobility 	totalTime 	254.7
scalar RSUExampleScenario.node[81].veinsmobility 	stopTime 	450
scalar RSUExampleScenario.node[81].veinsmobility 	minSpeed 	0
scalar RSUExampleScenario.node[81].veinsmobility 	maxSpeed 	13.999883710165
scalar RSUExampleScenario.node[81].veinsmobility 	totalDistance 	455.78716847243
scalar RSUExampleScenario.node[81].veinsmobility 	totalCO2Emission 	345.28126121441
scalar RSUExampleScenario.node[82].appl 	meanClusterNodes 	5
scalar RSUExampleScenario.node[82].appl 	meanClusterHeadUtility 	6.8167809641005
scalar RSUExampleScenario.node[82].appl 	NumberofCH 	0.13513513513514
scalar RSUExampleScenario.node[82].appl 	NumberofON 	0.62162162162162
scalar RSUExampleScenario.node[82].appl 	NumberofFN 	0.24324324324324
scalar RSUExampleScenario.node[82].veinsmobility 	startTime 	197.7
scalar RSUExampleScenario.node[82].veinsmobility 	totalTime 	252.3
scalar RSUExampleScenario.node[82].veinsmobility 	stopTime 	450
scalar RSUExampleScenario.node[82].veinsmobility 	minSpeed 	0
scalar RSUExampleScenario.node[82].veinsmobility 	maxSpeed 	13.999142831678
scalar RSUExampleScenario.node[82].veinsmobility 	totalDistance 	422.60344537858
scalar RSUExampleScenario.node[82].veinsmobility 	totalCO2Emission 	339.22984728758
scalar RSUExampleScenario.node[83].appl 	meanClusterNodes 	3.8
scalar RSUExampleScenario.node[83].appl 	meanClusterHeadUtility 	7.0030424438874
scalar RSUExampleScenario.node[83].appl 	NumberofCH 	0.13513513513514
scalar RSUExampleScenario.node[83].appl 	NumberofON 	0.78378378378378
scalar RSUExampleScenario.node[83].appl 	NumberofFN 	0.081081081081081
scalar RSUExampleScenario.node[83].veinsmobility 	startTime 	200.1
scalar RSUExampleScenario.node[83].veinsmobility 	totalTime 	249.9
scalar RSUExampleScenario.node[83].veinsmobility 	stopTime 	450
scalar RSUExampleScenario.node[83].veinsmobility 	minSpeed 	0
scalar RSUExampleScenario.node[83].veinsmobility 	maxSpeed 	13.996718267966
scalar RSUExampleScenario.node[83].veinsmobility 	totalDistance 	389.5291119752
scalar RSUExampleScenario.node[83].veinsmobility 	totalCO2Emission 	334.17619470731
scalar RSUExampleScenario.node[84].appl 	meanClusterNodes 	5.5
scalar RSUExampleScenario.node[84].appl 	meanClusterHeadUtility 	8.3258032232766
scalar RSUExampleScenario.node[84].appl 	NumberofCH 	0.10810810810811
scalar RSUExampleScenario.node[84].appl 	NumberofON 	0.54054054054054
scalar RSUExampleScenario.node[84].appl 	NumberofFN 	0.35135135135135
scalar RSUExampleScenario.node[84].veinsmobility 	startTime 	202.5
scalar RSUExampleScenario.node[84].veinsmobility 	totalTime 	247.5
scalar RSUExampleScenario.node[84].veinsmobility 	stopTime 	450
scalar RSUExampleScenario.node[84].veinsmobility 	minSpeed 	0
scalar RSUExampleScenario.node[84].veinsmobility 	maxSpeed 	13.999774538723
scalar RSUExampleScenario.node[84].veinsmobility 	totalDistance 	355.93724687202
scalar RSUExampleScenario.node[84].veinsmobility 	totalCO2Emission 	328.4522381911
scalar RSUExampleScenario.node[85].appl 	meanClusterNodes 	3.5714285714286
scalar RSUExampleScenario.node[85].appl 	meanClusterHeadUtility 	5.0193897553407
scalar RSUExampleScenario.node[85].appl 	NumberofCH 	0.18918918918919
scalar RSUExampleScenario.node[85].appl 	NumberofON 	0.78378378378378
scalar RSUExampleScenario.node[85].appl 	NumberofFN 	0.027027027027027
scalar RSUExampleScenario.node[85].veinsmobility 	startTime 	204.9
scalar RSUExampleScenario.node[85].veinsmobility 	totalTime 	245.1
scalar RSUExampleScenario.node[85].veinsmobility 	stopTime 	450
scalar RSUExampleScenario.node[85].veinsmobility 	minSpeed 	0
scalar RSUExampleScenario.node[85].veinsmobility 	maxSpeed 	13.993278496619
scalar RSUExampleScenario.node[85].veinsmobility 	totalDistance 	322.19979960636
scalar RSUExampleScenario.node[85].veinsmobility 	totalCO2Emission 	322.87462068866
scalar RSUExampleScenario.node[86].appl 	meanClusterNodes 	3.8333333333333
scalar RSUExampleScenario.node[86].appl 	meanClusterHeadUtility 	6.0118827487723
scalar RSUExampleScenario.node[86].appl 	NumberofCH 	0.16216216216216
scalar RSUExampleScenario.node[86].appl 	NumberofON 	0.78378378378378
scalar RSUExampleScenario.node[86].appl 	NumberofFN 	0.054054054054054
scalar RSUExampleScenario.node[86].veinsmobility 	startTime 	207.3
scalar RSUExampleScenario.node[86].veinsmobility 	totalTime 	242.7
scalar RSUExampleScenario.node[86].veinsmobility 	stopTime 	450
scalar RSUExampleScenario.node[86].veinsmobility 	minSpeed 	0
scalar RSUExampleScenario.node[86].veinsmobility 	maxSpeed 	13.835325849503
scalar RSUExampleScenario.node[86].veinsmobility 	totalDistance 	286.54469394491
scalar RSUExampleScenario.node[86].veinsmobility 	totalCO2Emission 	315.1698925172
scalar RSUExampleScenario.node[87].appl 	meanClusterNodes 	5.5
scalar RSUExampleScenario.node[87].appl 	meanClusterHeadUtility 	9.4135992139619
scalar RSUExampleScenario.node[87].appl 	NumberofCH 	0.10810810810811
scalar RSUExampleScenario.node[87].appl 	NumberofON 	0.43243243243243
scalar RSUExampleScenario.node[87].appl 	NumberofFN 	0.45945945945946
scalar RSUExampleScenario.node[87].veinsmobility 	startTime 	209.7
scalar RSUExampleScenario.node[87].veinsmobility 	totalTime 	240.3
scalar RSUExampleScenario.node[87].veinsmobility 	stopTime 	450
scalar RSUExampleScenario.node[87].veinsmobility 	minSpeed 	0
scalar RSUExampleScenario.node[87].veinsmobility 	maxSpeed 	13.860764133409
scalar RSUExampleScenario.node[87].veinsmobility 	totalDistance 	248.96181376521
scalar RSUExampleScenario.node[87].veinsmobility 	totalCO2Emission 	299.28904342762
scalar RSUExampleScenario.node[88].appl 	meanClusterNodes 	3.1666666666667
scalar RSUExampleScenario.node[88].appl 	meanClusterHeadUtility 	6.1657390052905
scalar RSUExampleScenario.node[88].appl 	NumberofCH 	0.16216216216216
scalar RSUExampleScenario.node[88].appl 	NumberofON 	0.45945945945946
scalar RSUExampleScenario.node[88].appl 	NumberofFN 	0.37837837837838
scalar RSUExampleScenario.node[88].veinsmobility 	startTime 	212.1
scalar RSUExampleScenario.node[88].veinsmobility 	totalTime 	237.9
scalar RSUExampleScenario.node[88].veinsmobility 	stopTime 	450
scalar RSUExampleScenario.node[88].veinsmobility 	minSpeed 	0
scalar RSUExampleScenario.node[88].veinsmobility 	maxSpeed 	13.854675589444
scalar RSUExampleScenario.node[88].veinsmobility 	totalDistance 	226.03013252749
scalar RSUExampleScenario.node[88].veinsmobility 	totalCO2Emission 	287.00068937642
scalar RSUExampleScenario.node[89].appl 	meanClusterNodes 	4
scalar RSUExampleScenario.node[89].appl 	meanClusterHeadUtility 	9.114570395702
scalar RSUExampleScenario.node[89].appl 	NumberofCH 	0.10810810810811
scalar RSUExampleScenario.node[89].appl 	NumberofON 	0.72972972972973
scalar RSUExampleScenario.node[89].appl 	NumberofFN 	0.16216216216216
scalar RSUExampleScenario.node[89].veinsmobility 	startTime 	214.5
scalar RSUExampleScenario.node[89].veinsmobility 	totalTime 	235.5
scalar RSUExampleScenario.node[89].veinsmobility 	stopTime 	450
scalar RSUExampleScenario.node[89].veinsmobility 	minSpeed 	0
scalar RSUExampleScenario.node[89].veinsmobility 	maxSpeed 	13.881861921103
scalar RSUExampleScenario.node[89].veinsmobility 	totalDistance 	215.36671123187
scalar RSUExampleScenario.node[89].veinsmobility 	totalCO2Emission 	282.62116649638
scalar RSUExampleScenario.node[9].appl 	meanClusterNodes 	4.8333333333333
scalar RSUExampleScenario.node[9].appl 	meanClusterHeadUtility 	6.2038581221569
scalar RSUExampleScenario.node[9].appl 	NumberofCH 	0.16216216216216
scalar RSUExampleScenario.node[9].appl 	NumberofON 	0.54054054054054
scalar RSUExampleScenario.node[9].appl 	NumberofFN 	0.2972972972973
scalar RSUExampleScenario.node[9].veinsmobility 	startTime 	21.7
scalar RSUExampleScenario.node[9].veinsmobility 	totalTime 	428.3
scalar RSUExampleScenario.node[9].veinsmobility 	stopTime 	450
scalar RSUExampleScenario.node[9].veinsmobility 	minSpeed 	0
scalar RSUExampleScenario.node[9].veinsmobility 	maxSpeed 	13.999974354513
scalar RSUExampleScenario.node[9].veinsmobility 	totalDistance 	2830.2395120912
scalar RSUExampleScenario.node[9].veinsmobility 	totalCO2Emission 	766.2116423832
scalar RSUExampleScenario.node[90].appl 	meanClusterNodes 	6.5
scalar RSUExampleScenario.node[90].appl 	meanClusterHeadUtility 	9.8447741011344
scalar RSUExampleScenario.node[90].appl 	NumberofCH 	0.10810810810811
scalar RSUExampleScenario.node[90].appl 	NumberofON 	0.67567567567568
scalar RSUExampleScenario.node[90].appl 	NumberofFN 	0.21621621621622
scalar RSUExampleScenario.node[90].veinsmobility 	startTime 	217
scalar RSUExampleScenario.node[90].veinsmobility 	totalTime 	233
scalar RSUExampleScenario.node[90].veinsmobility 	stopTime 	450
scalar RSUExampleScenario.node[90].veinsmobility 	minSpeed 	0
scalar RSUExampleScenario.node[90].veinsmobility 	maxSpeed 	13.836439417279
scalar RSUExampleScenario.node[90].veinsmobility 	totalDistance 	202.36475583308
scalar RSUExampleScenario.node[90].veinsmobility 	totalCO2Emission 	279.97193337752
scalar RSUExampleScenario.node[91].appl 	meanClusterNodes 	5.3333333333333
scalar RSUExampleScenario.node[91].appl 	meanClusterHeadUtility 	6.0801314368259
scalar RSUExampleScenario.node[91].appl 	NumberofCH 	0.16216216216216
scalar RSUExampleScenario.node[91].appl 	NumberofON 	0.67567567567568
scalar RSUExampleScenario.node[91].appl 	NumberofFN 	0.16216216216216
scalar RSUExampleScenario.node[91].veinsmobility 	startTime 	219.4
scalar RSUExampleScenario.node[91].veinsmobility 	totalTime 	230.6
scalar RSUExampleScenario.node[91].veinsmobility 	stopTime 	450
scalar RSUExampleScenario.node[91].veinsmobility 	minSpeed 	0
scalar RSUExampleScenario.node[91].veinsmobility 	maxSpeed 	13.874308906582
scalar RSUExampleScenario.node[91].veinsmobility 	totalDistance 	185.83989963871
scalar RSUExampleScenario.node[91].veinsmobility 	totalCO2Emission 	278.12863727559
scalar RSUExampleScenario.node[92].appl 	meanClusterNodes 	2.5
scalar RSUExampleScenario.node[92].appl 	meanClusterHeadUtility 	17.770202435663
scalar RSUExampleScenario.node[92].appl 	NumberofCH 	0.054054054054054
scalar RSUExampleScenario.node[92].appl 	NumberofON 	0.83783783783784
scalar RSUExampleScenario.node[92].appl 	NumberofFN 	0.10810810810811
scalar RSUExampleScenario.node[92].veinsmobility 	startTime 	221.8
scalar RSUExampleScenario.node[92].veinsmobility 	totalTime 	228.2
scalar RSUExampleScenario.node[92].veinsmobility 	stopTime 	450
scalar RSUExampleScenario.node[92].veinsmobility 	minSpeed 	0
scalar RSUExampleScenario.node[92].veinsmobility 	maxSpeed 	13.883391793799
scalar RSUExampleScenario.node[92].veinsmobility 	totalDistance 	150.15737865095
scalar RSUExampleScenario.node[92].veinsmobility 	totalCO2Emission 	264.01703275958
scalar RSUExampleScenario.node[93].appl 	meanClusterNodes 	2
scalar RSUExampleScenario.node[93].appl 	meanClusterHeadUtility 	11.381037716969
scalar RSUExampleScenario.node[93].appl 	NumberofCH 	0.10810810810811
scalar RSUExampleScenario.node[93].appl 	NumberofON 	0.59459459459459
scalar RSUExampleScenario.node[93].appl 	NumberofFN 	0.2972972972973
scalar RSUExampleScenario.node[93].veinsmobility 	startTime 	224.2
scalar RSUExampleScenario.node[93].veinsmobility 	totalTime 	225.8
scalar RSUExampleScenario.node[93].veinsmobility 	stopTime 	450
scalar RSUExampleScenario.node[93].veinsmobility 	minSpeed 	0
scalar RSUExampleScenario.node[93].veinsmobility 	maxSpeed 	13.82794244224
scalar RSUExampleScenario.node[93].veinsmobility 	totalDistance 	123.82253808379
scalar RSUExampleScenario.node[93].veinsmobility 	totalCO2Emission 	251.86092934155
scalar RSUExampleScenario.node[94].appl 	meanClusterNodes 	2
scalar RSUExampleScenario.node[94].appl 	meanClusterHeadUtility 	9.7974693394696
scalar RSUExampleScenario.node[94].appl 	NumberofCH 	0.10810810810811
scalar RSUExampleScenario.node[94].appl 	NumberofON 	0.72972972972973
scalar RSUExampleScenario.node[94].appl 	NumberofFN 	0.16216216216216
scalar RSUExampleScenario.node[94].veinsmobility 	startTime 	226.6
scalar RSUExampleScenario.node[94].veinsmobility 	totalTime 	223.4
scalar RSUExampleScenario.node[94].veinsmobility 	stopTime 	450
scalar RSUExampleScenario.node[94].veinsmobility 	minSpeed 	0
scalar RSUExampleScenario.node[94].veinsmobility 	maxSpeed 	13.754447397293
scalar RSUExampleScenario.node[94].veinsmobility 	totalDistance 	112.32311813315
scalar RSUExampleScenario.node[94].veinsmobility 	totalCO2Emission 	245.61006033345
scalar RSUExampleScenario.node[95].appl 	meanClusterNodes 	3.3333333333333
scalar RSUExampleScenario.node[95].appl 	meanClusterHeadUtility 	6.7366087833683
scalar RSUExampleScenario.node[95].appl 	NumberofCH 	0.16216216216216
scalar RSUExampleScenario.node[95].appl 	NumberofON 	0.37837837837838
scalar RSUExampleScenario.node[95].appl 	NumberofFN 	0.45945945945946
scalar RSUExampleScenario.node[95].veinsmobility 	startTime 	229
scalar RSUExampleScenario.node[95].veinsmobility 	totalTime 	221
scalar RSUExampleScenario.node[95].veinsmobility 	stopTime 	450
scalar RSUExampleScenario.node[95].veinsmobility 	minSpeed 	0
scalar RSUExampleScenario.node[95].veinsmobility 	maxSpeed 	13.864636076295
scalar RSUExampleScenario.node[95].veinsmobility 	totalDistance 	99.184329224489
scalar RSUExampleScenario.node[95].veinsmobility 	totalCO2Emission 	242.39205913782
scalar RSUExampleScenario.node[96].appl 	meanClusterNodes 	3
scalar RSUExampleScenario.node[96].appl 	meanClusterHeadUtility 	18.505027058152
scalar RSUExampleScenario.node[96].appl 	NumberofCH 	0.054054054054054
scalar RSUExampleScenario.node[96].appl 	NumberofON 	0.83783783783784
scalar RSUExampleScenario.node[96].appl 	NumberofFN 	0.10810810810811
scalar RSUExampleScenario.node[96].veinsmobility 	startTime 	231.4
scalar RSUExampleScenario.node[96].veinsmobility 	totalTime 	218.6
scalar RSUExampleScenario.node[96].veinsmobility 	stopTime 	450
scalar RSUExampleScenario.node[96].veinsmobility 	minSpeed 	0
scalar RSUExampleScenario.node[96].veinsmobility 	maxSpeed 	13.69007370068
scalar RSUExampleScenario.node[96].veinsmobility 	totalDistance 	83.391076178625
scalar RSUExampleScenario.node[96].veinsmobility 	totalCO2Emission 	239.33956276307
scalar RSUExampleScenario.node[97].appl 	meanClusterNodes 	3.3333333333333
scalar RSUExampleScenario.node[97].appl 	meanClusterHeadUtility 	11.437894592156
scalar RSUExampleScenario.node[97].appl 	NumberofCH 	0.081081081081081
scalar RSUExampleScenario.node[97].appl 	NumberofON 	0.54054054054054
scalar RSUExampleScenario.node[97].appl 	NumberofFN 	0.37837837837838
scalar RSUExampleScenario.node[97].veinsmobility 	startTime 	233.8
scalar RSUExampleScenario.node[97].veinsmobility 	totalTime 	216.2
scalar RSUExampleScenario.node[97].veinsmobility 	stopTime 	450
scalar RSUExampleScenario.node[97].veinsmobility 	minSpeed 	0
scalar RSUExampleScenario.node[97].veinsmobility 	maxSpeed 	12.688198465054
scalar RSUExampleScenario.node[97].veinsmobility 	totalDistance 	58.299850419893
scalar RSUExampleScenario.node[97].veinsmobility 	totalCO2Emission 	233.10063221031
scalar RSUExampleScenario.node[98].appl 	meanClusterNodes 	5
scalar RSUExampleScenario.node[98].appl 	meanClusterHeadUtility 	9.3280306135999
scalar RSUExampleScenario.node[98].appl 	NumberofCH 	0.10810810810811
scalar RSUExampleScenario.node[98].appl 	NumberofON 	0.67567567567568
scalar RSUExampleScenario.node[98].appl 	NumberofFN 	0.21621621621622
scalar RSUExampleScenario.node[98].veinsmobility 	startTime 	236.2
scalar RSUExampleScenario.node[98].veinsmobility 	totalTime 	213.8
scalar RSUExampleScenario.node[98].veinsmobility 	stopTime 	450
scalar RSUExampleScenario.node[98].veinsmobility 	minSpeed 	0
scalar RSUExampleScenario.node[98].veinsmobility 	maxSpeed 	8.1711619097393
scalar RSUExampleScenario.node[98].veinsmobility 	totalDistance 	23.348399330576
scalar RSUExampleScenario.node[98].veinsmobility 	totalCO2Emission 	217.52400223982
scalar RSUExampleScenario.node[99].appl 	meanClusterNodes 	7.5
scalar RSUExampleScenario.node[99].appl 	meanClusterHeadUtility 	5.801395362421
scalar RSUExampleScenario.node[99].appl 	NumberofCH 	0.16216216216216
scalar RSUExampleScenario.node[99].appl 	NumberofON 	0.32432432432432
scalar RSUExampleScenario.node[99].appl 	NumberofFN 	0.51351351351351
scalar RSUExampleScenario.node[99].veinsmobility 	startTime 	238.6
scalar RSUExampleScenario.node[99].veinsmobility 	totalTime 	211.4
scalar RSUExampleScenario.node[99].veinsmobility 	stopTime 	450
scalar RSUExampleScenario.node[99].veinsmobility 	minSpeed 	0
scalar RSUExampleScenario.node[99].veinsmobility 	maxSpeed 	3.0958764455122
scalar RSUExampleScenario.node[99].veinsmobility 	totalDistance 	3.2965260966401
scalar RSUExampleScenario.node[99].veinsmobility 	totalCO2Emission 	207.11087981899
