version 2
run statistic-1324-20150306-06:50:01-7616
attr c 4
attr configname statistic
attr datetime 20150306-06:50:01
attr experiment statistic
attr inifile omnetpp.ini
attr iterationvars "$p=1/4, $c=4"
attr iterationvars2 "$p=1/4, $c=4, $repetition=24"
attr measurement "$p=1/4, $c=4"
attr network RSUExampleScenario
attr p 1/4
attr processid 7616
attr repetition 24
attr replication #24
attr resultdir results
attr runnumber 1324
attr seedset 1324

scalar . 	c 	4
scalar RSUExampleScenario.rsu[0].appl 	NumberofCH 	19
scalar RSUExampleScenario.rsu[0].appl 	NumberofON 	69
scalar RSUExampleScenario.rsu[0].appl 	NumberofFN 	12
scalar RSUExampleScenario.rsu[0].appl 	meanClusterNodes 	3.6315789473684
scalar RSUExampleScenario.rsu[0].appl 	varClusterNodes 	0.74059196207738
scalar RSUExampleScenario.rsu[0].appl 	GSScycles 	8
