version 2
run statistic-1272-20150306-06:27:58-12548
attr c 3
attr configname statistic
attr datetime 20150306-06:27:58
attr experiment statistic
attr inifile omnetpp.ini
attr iterationvars "$p=1/4, $c=3"
attr iterationvars2 "$p=1/4, $c=3, $repetition=72"
attr measurement "$p=1/4, $c=3"
attr network RSUExampleScenario
attr p 1/4
attr processid 12548
attr repetition 72
attr replication #72
attr resultdir results
attr runnumber 1272
attr seedset 1272

scalar . 	c 	3
scalar RSUExampleScenario.rsu[0].appl 	NumberofCH 	26
scalar RSUExampleScenario.rsu[0].appl 	NumberofON 	59
scalar RSUExampleScenario.rsu[0].appl 	NumberofFN 	15
scalar RSUExampleScenario.rsu[0].appl 	meanClusterNodes 	2.2692307692308
scalar RSUExampleScenario.rsu[0].appl 	varClusterNodes 	1.0939586656406
scalar RSUExampleScenario.rsu[0].appl 	GSScycles 	11
