version 2
run statisticRVV-159-20150327-09:58:40-16948
attr c 9
attr configname statisticRVV
attr datetime 20150327-09:58:40
attr experiment statisticRVV
attr inifile omnetpp.ini
attr iterationvars "$sc=\"erlangen-medium.launchd.xml\", $p=1/10, $c=9"
attr iterationvars2 "$sc=\"erlangen-medium.launchd.xml\", $p=1/10, $c=9, $repetition=9"
attr measurement "$sc=\"erlangen-medium.launchd.xml\", $p=1/10, $c=9"
attr network RSUExampleScenario
attr p 1/10
attr processid 16948
attr repetition 9
attr replication #9
attr resultdir results
attr runnumber 159
attr sc "\"erlangen-medium.launchd.xml\""
attr seedset 159

scalar . 	c 	9
scalar RSUExampleScenario.node[0].veinsmobility 	startTime 	0.1
scalar RSUExampleScenario.node[0].veinsmobility 	totalTime 	264.2
scalar RSUExampleScenario.node[0].veinsmobility 	stopTime 	264.4
scalar RSUExampleScenario.node[0].veinsmobility 	minSpeed 	0.24974499711045
scalar RSUExampleScenario.node[0].veinsmobility 	maxSpeed 	13.999948468183
scalar RSUExampleScenario.node[0].veinsmobility 	totalDistance 	3409.9259552637
scalar RSUExampleScenario.node[0].veinsmobility 	totalCO2Emission 	694.15197991104
scalar RSUExampleScenario.node[1].veinsmobility 	startTime 	3.1
scalar RSUExampleScenario.node[1].veinsmobility 	totalTime 	265.4
scalar RSUExampleScenario.node[1].veinsmobility 	stopTime 	268.6
scalar RSUExampleScenario.node[1].veinsmobility 	minSpeed 	0.25952586624352
scalar RSUExampleScenario.node[1].veinsmobility 	maxSpeed 	13.999961897845
scalar RSUExampleScenario.node[1].veinsmobility 	totalDistance 	3409.431365883
scalar RSUExampleScenario.node[1].veinsmobility 	totalCO2Emission 	692.61088332844
scalar RSUExampleScenario.node[2].veinsmobility 	startTime 	6.1
scalar RSUExampleScenario.node[2].veinsmobility 	totalTime 	266.1
scalar RSUExampleScenario.node[2].veinsmobility 	stopTime 	272.3
scalar RSUExampleScenario.node[2].veinsmobility 	minSpeed 	0.25795809440152
scalar RSUExampleScenario.node[2].veinsmobility 	maxSpeed 	13.999975576825
scalar RSUExampleScenario.node[2].veinsmobility 	totalDistance 	3409.1969033999
scalar RSUExampleScenario.node[2].veinsmobility 	totalCO2Emission 	688.14686877549
scalar RSUExampleScenario.node[3].veinsmobility 	startTime 	9.1
scalar RSUExampleScenario.node[3].veinsmobility 	totalTime 	266.5
scalar RSUExampleScenario.node[3].veinsmobility 	stopTime 	275.7
scalar RSUExampleScenario.node[3].veinsmobility 	minSpeed 	0.25126794261043
scalar RSUExampleScenario.node[3].veinsmobility 	maxSpeed 	13.999965778291
scalar RSUExampleScenario.node[3].veinsmobility 	totalDistance 	3409.7234752655
scalar RSUExampleScenario.node[3].veinsmobility 	totalCO2Emission 	688.52155954671
scalar RSUExampleScenario.node[4].veinsmobility 	startTime 	12.1
scalar RSUExampleScenario.node[4].veinsmobility 	totalTime 	266.7
scalar RSUExampleScenario.node[4].veinsmobility 	stopTime 	278.9
scalar RSUExampleScenario.node[4].veinsmobility 	minSpeed 	0.25247315010312
scalar RSUExampleScenario.node[4].veinsmobility 	maxSpeed 	13.999977820106
scalar RSUExampleScenario.node[4].veinsmobility 	totalDistance 	3409.4554711919
scalar RSUExampleScenario.node[4].veinsmobility 	totalCO2Emission 	695.33349190941
scalar RSUExampleScenario.node[5].veinsmobility 	startTime 	15.1
scalar RSUExampleScenario.node[5].veinsmobility 	totalTime 	266.9
scalar RSUExampleScenario.node[5].veinsmobility 	stopTime 	282.1
scalar RSUExampleScenario.node[5].veinsmobility 	minSpeed 	0.25651155349496
scalar RSUExampleScenario.node[5].veinsmobility 	maxSpeed 	13.999705867267
scalar RSUExampleScenario.node[5].veinsmobility 	totalDistance 	3413.5742913803
scalar RSUExampleScenario.node[5].veinsmobility 	totalCO2Emission 	693.49773402685
scalar RSUExampleScenario.node[6].veinsmobility 	startTime 	18.1
scalar RSUExampleScenario.node[6].veinsmobility 	totalTime 	267
scalar RSUExampleScenario.node[6].veinsmobility 	stopTime 	285.2
scalar RSUExampleScenario.node[6].veinsmobility 	minSpeed 	0.2474293640398
scalar RSUExampleScenario.node[6].veinsmobility 	maxSpeed 	13.999897872736
scalar RSUExampleScenario.node[6].veinsmobility 	totalDistance 	3409.3773941508
scalar RSUExampleScenario.node[6].veinsmobility 	totalCO2Emission 	694.13166567082
scalar RSUExampleScenario.node[7].veinsmobility 	startTime 	21.1
scalar RSUExampleScenario.node[7].veinsmobility 	totalTime 	267
scalar RSUExampleScenario.node[7].veinsmobility 	stopTime 	288.2
scalar RSUExampleScenario.node[7].veinsmobility 	minSpeed 	0.24831407816708
scalar RSUExampleScenario.node[7].veinsmobility 	maxSpeed 	13.999839649
scalar RSUExampleScenario.node[7].veinsmobility 	totalDistance 	3413.7025911074
scalar RSUExampleScenario.node[7].veinsmobility 	totalCO2Emission 	693.90081622929
scalar RSUExampleScenario.node[8].veinsmobility 	startTime 	24.1
scalar RSUExampleScenario.node[8].veinsmobility 	totalTime 	267
scalar RSUExampleScenario.node[8].veinsmobility 	stopTime 	291.2
scalar RSUExampleScenario.node[8].veinsmobility 	minSpeed 	0.24939868258219
scalar RSUExampleScenario.node[8].veinsmobility 	maxSpeed 	13.99993849243
scalar RSUExampleScenario.node[8].veinsmobility 	totalDistance 	3409.3939360771
scalar RSUExampleScenario.node[8].veinsmobility 	totalCO2Emission 	690.63378616409
scalar RSUExampleScenario.node[9].veinsmobility 	startTime 	27.1
scalar RSUExampleScenario.node[9].veinsmobility 	totalTime 	267
scalar RSUExampleScenario.node[9].veinsmobility 	stopTime 	294.2
scalar RSUExampleScenario.node[9].veinsmobility 	minSpeed 	0.25583021755936
scalar RSUExampleScenario.node[9].veinsmobility 	maxSpeed 	13.999943669678
scalar RSUExampleScenario.node[9].veinsmobility 	totalDistance 	3413.4498768451
scalar RSUExampleScenario.node[9].veinsmobility 	totalCO2Emission 	689.07564763724
scalar RSUExampleScenario.node[10].veinsmobility 	startTime 	30.1
scalar RSUExampleScenario.node[10].veinsmobility 	totalTime 	267
scalar RSUExampleScenario.node[10].veinsmobility 	stopTime 	297.2
scalar RSUExampleScenario.node[10].veinsmobility 	minSpeed 	0.24905057184282
scalar RSUExampleScenario.node[10].veinsmobility 	maxSpeed 	13.999897846312
scalar RSUExampleScenario.node[10].veinsmobility 	totalDistance 	3409.247509191
scalar RSUExampleScenario.node[10].veinsmobility 	totalCO2Emission 	689.58431800196
scalar RSUExampleScenario.node[11].veinsmobility 	startTime 	33.1
scalar RSUExampleScenario.node[11].veinsmobility 	totalTime 	267
scalar RSUExampleScenario.node[11].veinsmobility 	stopTime 	300.2
scalar RSUExampleScenario.node[11].veinsmobility 	minSpeed 	0.25332532342989
scalar RSUExampleScenario.node[11].veinsmobility 	maxSpeed 	13.999902271975
scalar RSUExampleScenario.node[11].veinsmobility 	totalDistance 	3413.47231964
scalar RSUExampleScenario.node[11].veinsmobility 	totalCO2Emission 	690.23095102027
scalar RSUExampleScenario.node[12].veinsmobility 	startTime 	36.1
scalar RSUExampleScenario.node[12].veinsmobility 	totalTime 	267.1
scalar RSUExampleScenario.node[12].veinsmobility 	stopTime 	303.3
scalar RSUExampleScenario.node[12].veinsmobility 	minSpeed 	0.25085333826253
scalar RSUExampleScenario.node[12].veinsmobility 	maxSpeed 	13.999954812564
scalar RSUExampleScenario.node[12].veinsmobility 	totalDistance 	3409.9482663777
scalar RSUExampleScenario.node[12].veinsmobility 	totalCO2Emission 	694.37321878555
scalar RSUExampleScenario.node[13].veinsmobility 	startTime 	39.1
scalar RSUExampleScenario.node[13].veinsmobility 	totalTime 	267.1
scalar RSUExampleScenario.node[13].veinsmobility 	stopTime 	306.3
scalar RSUExampleScenario.node[13].veinsmobility 	minSpeed 	0.2586640660665
scalar RSUExampleScenario.node[13].veinsmobility 	maxSpeed 	13.999925318684
scalar RSUExampleScenario.node[13].veinsmobility 	totalDistance 	3413.4204315209
scalar RSUExampleScenario.node[13].veinsmobility 	totalCO2Emission 	689.68241968093
scalar RSUExampleScenario.node[14].veinsmobility 	startTime 	42.1
scalar RSUExampleScenario.node[14].veinsmobility 	totalTime 	267.2
scalar RSUExampleScenario.node[14].veinsmobility 	stopTime 	309.4
scalar RSUExampleScenario.node[14].veinsmobility 	minSpeed 	0.24960779015208
scalar RSUExampleScenario.node[14].veinsmobility 	maxSpeed 	13.999937412378
scalar RSUExampleScenario.node[14].veinsmobility 	totalDistance 	3409.9100607769
scalar RSUExampleScenario.node[14].veinsmobility 	totalCO2Emission 	691.89000823154
scalar RSUExampleScenario.node[15].veinsmobility 	startTime 	45.1
scalar RSUExampleScenario.node[15].veinsmobility 	totalTime 	267.2
scalar RSUExampleScenario.node[15].veinsmobility 	stopTime 	312.4
scalar RSUExampleScenario.node[15].veinsmobility 	minSpeed 	0.25336700739828
scalar RSUExampleScenario.node[15].veinsmobility 	maxSpeed 	13.999963414695
scalar RSUExampleScenario.node[15].veinsmobility 	totalDistance 	3413.6405969369
scalar RSUExampleScenario.node[15].veinsmobility 	totalCO2Emission 	691.83497135388
scalar RSUExampleScenario.node[16].veinsmobility 	startTime 	48.1
scalar RSUExampleScenario.node[16].veinsmobility 	totalTime 	267.2
scalar RSUExampleScenario.node[16].veinsmobility 	stopTime 	315.4
scalar RSUExampleScenario.node[16].veinsmobility 	minSpeed 	0.25037289027474
scalar RSUExampleScenario.node[16].veinsmobility 	maxSpeed 	13.999782702876
scalar RSUExampleScenario.node[16].veinsmobility 	totalDistance 	3409.533085127
scalar RSUExampleScenario.node[16].veinsmobility 	totalCO2Emission 	695.47408473284
scalar RSUExampleScenario.node[17].veinsmobility 	startTime 	51.1
scalar RSUExampleScenario.node[17].veinsmobility 	totalTime 	267.2
scalar RSUExampleScenario.node[17].veinsmobility 	stopTime 	318.4
scalar RSUExampleScenario.node[17].veinsmobility 	minSpeed 	0.25958105669729
scalar RSUExampleScenario.node[17].veinsmobility 	maxSpeed 	13.999930587038
scalar RSUExampleScenario.node[17].veinsmobility 	totalDistance 	3413.5834531871
scalar RSUExampleScenario.node[17].veinsmobility 	totalCO2Emission 	693.15978164221
scalar RSUExampleScenario.node[18].veinsmobility 	startTime 	54.1
scalar RSUExampleScenario.node[18].veinsmobility 	totalTime 	267.2
scalar RSUExampleScenario.node[18].veinsmobility 	stopTime 	321.4
scalar RSUExampleScenario.node[18].veinsmobility 	minSpeed 	0.24930762936827
scalar RSUExampleScenario.node[18].veinsmobility 	maxSpeed 	13.999990153129
scalar RSUExampleScenario.node[18].veinsmobility 	totalDistance 	3409.6110821449
scalar RSUExampleScenario.node[18].veinsmobility 	totalCO2Emission 	690.44575753786
scalar RSUExampleScenario.node[19].veinsmobility 	startTime 	57.1
scalar RSUExampleScenario.node[19].veinsmobility 	totalTime 	267.3
scalar RSUExampleScenario.node[19].veinsmobility 	stopTime 	324.5
scalar RSUExampleScenario.node[19].veinsmobility 	minSpeed 	0.2501748924593
scalar RSUExampleScenario.node[19].veinsmobility 	maxSpeed 	13.999970234041
scalar RSUExampleScenario.node[19].veinsmobility 	totalDistance 	3414.1644580988
scalar RSUExampleScenario.node[19].veinsmobility 	totalCO2Emission 	687.7125535987
scalar RSUExampleScenario.node[20].veinsmobility 	startTime 	60.1
scalar RSUExampleScenario.node[20].veinsmobility 	totalTime 	267.4
scalar RSUExampleScenario.node[20].veinsmobility 	stopTime 	327.6
scalar RSUExampleScenario.node[20].veinsmobility 	minSpeed 	0.25577874473133
scalar RSUExampleScenario.node[20].veinsmobility 	maxSpeed 	13.999970138243
scalar RSUExampleScenario.node[20].veinsmobility 	totalDistance 	3409.8579082697
scalar RSUExampleScenario.node[20].veinsmobility 	totalCO2Emission 	694.43981236172
scalar RSUExampleScenario.node[21].veinsmobility 	startTime 	63.1
scalar RSUExampleScenario.node[21].veinsmobility 	totalTime 	267.5
scalar RSUExampleScenario.node[21].veinsmobility 	stopTime 	330.7
scalar RSUExampleScenario.node[21].veinsmobility 	minSpeed 	0.2475217216888
scalar RSUExampleScenario.node[21].veinsmobility 	maxSpeed 	13.999926503797
scalar RSUExampleScenario.node[21].veinsmobility 	totalDistance 	3413.8655968098
scalar RSUExampleScenario.node[21].veinsmobility 	totalCO2Emission 	689.32652935418
scalar RSUExampleScenario.node[22].veinsmobility 	startTime 	66.1
scalar RSUExampleScenario.node[22].veinsmobility 	totalTime 	267.7
scalar RSUExampleScenario.node[22].veinsmobility 	stopTime 	333.9
scalar RSUExampleScenario.node[22].veinsmobility 	minSpeed 	0.25270974151371
scalar RSUExampleScenario.node[22].veinsmobility 	maxSpeed 	13.999943179882
scalar RSUExampleScenario.node[22].veinsmobility 	totalDistance 	3410.0925076276
scalar RSUExampleScenario.node[22].veinsmobility 	totalCO2Emission 	688.37850583972
scalar RSUExampleScenario.node[23].veinsmobility 	startTime 	69.1
scalar RSUExampleScenario.node[23].veinsmobility 	totalTime 	267.8
scalar RSUExampleScenario.node[23].veinsmobility 	stopTime 	337
scalar RSUExampleScenario.node[23].veinsmobility 	minSpeed 	0.25177832811605
scalar RSUExampleScenario.node[23].veinsmobility 	maxSpeed 	13.99991652532
scalar RSUExampleScenario.node[23].veinsmobility 	totalDistance 	3413.4812210497
scalar RSUExampleScenario.node[23].veinsmobility 	totalCO2Emission 	691.06160942893
scalar RSUExampleScenario.node[24].veinsmobility 	startTime 	72.1
scalar RSUExampleScenario.node[24].veinsmobility 	totalTime 	267.9
scalar RSUExampleScenario.node[24].veinsmobility 	stopTime 	340.1
scalar RSUExampleScenario.node[24].veinsmobility 	minSpeed 	0.25605088412412
scalar RSUExampleScenario.node[24].veinsmobility 	maxSpeed 	13.999947357136
scalar RSUExampleScenario.node[24].veinsmobility 	totalDistance 	3409.5384402653
scalar RSUExampleScenario.node[24].veinsmobility 	totalCO2Emission 	691.48657555147
scalar RSUExampleScenario.node[25].veinsmobility 	startTime 	75.1
scalar RSUExampleScenario.node[25].veinsmobility 	totalTime 	268
scalar RSUExampleScenario.node[25].veinsmobility 	stopTime 	343.2
scalar RSUExampleScenario.node[25].veinsmobility 	minSpeed 	0.25770633804705
scalar RSUExampleScenario.node[25].veinsmobility 	maxSpeed 	13.999972774039
scalar RSUExampleScenario.node[25].veinsmobility 	totalDistance 	3413.616103817
scalar RSUExampleScenario.node[25].veinsmobility 	totalCO2Emission 	693.04586597826
scalar RSUExampleScenario.node[26].veinsmobility 	startTime 	78.1
scalar RSUExampleScenario.node[26].veinsmobility 	totalTime 	268.2
scalar RSUExampleScenario.node[26].veinsmobility 	stopTime 	346.4
scalar RSUExampleScenario.node[26].veinsmobility 	minSpeed 	0.25955204869108
scalar RSUExampleScenario.node[26].veinsmobility 	maxSpeed 	13.999901568638
scalar RSUExampleScenario.node[26].veinsmobility 	totalDistance 	3410.0167484265
scalar RSUExampleScenario.node[26].veinsmobility 	totalCO2Emission 	695.06224121475
scalar RSUExampleScenario.node[27].veinsmobility 	startTime 	81.1
scalar RSUExampleScenario.node[27].veinsmobility 	totalTime 	268.5
scalar RSUExampleScenario.node[27].veinsmobility 	stopTime 	349.7
scalar RSUExampleScenario.node[27].veinsmobility 	minSpeed 	0.25994550379389
scalar RSUExampleScenario.node[27].veinsmobility 	maxSpeed 	13.999962960039
scalar RSUExampleScenario.node[27].veinsmobility 	totalDistance 	3414.3460449609
scalar RSUExampleScenario.node[27].veinsmobility 	totalCO2Emission 	692.60919019366
scalar RSUExampleScenario.node[28].veinsmobility 	startTime 	84.1
scalar RSUExampleScenario.node[28].veinsmobility 	totalTime 	268.8
scalar RSUExampleScenario.node[28].veinsmobility 	stopTime 	353
scalar RSUExampleScenario.node[28].veinsmobility 	minSpeed 	0.25189475728711
scalar RSUExampleScenario.node[28].veinsmobility 	maxSpeed 	13.999983061703
scalar RSUExampleScenario.node[28].veinsmobility 	totalDistance 	3410.1198186511
scalar RSUExampleScenario.node[28].veinsmobility 	totalCO2Emission 	690.05673611545
scalar RSUExampleScenario.node[29].veinsmobility 	startTime 	87.1
scalar RSUExampleScenario.node[29].veinsmobility 	totalTime 	269.2
scalar RSUExampleScenario.node[29].veinsmobility 	stopTime 	356.4
scalar RSUExampleScenario.node[29].veinsmobility 	minSpeed 	0.2518502375083
scalar RSUExampleScenario.node[29].veinsmobility 	maxSpeed 	13.999875719598
scalar RSUExampleScenario.node[29].veinsmobility 	totalDistance 	3414.2192365289
scalar RSUExampleScenario.node[29].veinsmobility 	totalCO2Emission 	693.45470392707
scalar RSUExampleScenario.node[30].veinsmobility 	startTime 	90.1
scalar RSUExampleScenario.node[30].veinsmobility 	totalTime 	269.6
scalar RSUExampleScenario.node[30].veinsmobility 	stopTime 	359.8
scalar RSUExampleScenario.node[30].veinsmobility 	minSpeed 	0.25616545762867
scalar RSUExampleScenario.node[30].veinsmobility 	maxSpeed 	13.999947566863
scalar RSUExampleScenario.node[30].veinsmobility 	totalDistance 	3409.7618282916
scalar RSUExampleScenario.node[30].veinsmobility 	totalCO2Emission 	691.84990499775
scalar RSUExampleScenario.node[31].veinsmobility 	startTime 	93.1
scalar RSUExampleScenario.node[31].veinsmobility 	totalTime 	270
scalar RSUExampleScenario.node[31].veinsmobility 	stopTime 	363.2
scalar RSUExampleScenario.node[31].veinsmobility 	minSpeed 	0.25435757582891
scalar RSUExampleScenario.node[31].veinsmobility 	maxSpeed 	13.999912119755
scalar RSUExampleScenario.node[31].veinsmobility 	totalDistance 	3413.562573966
scalar RSUExampleScenario.node[31].veinsmobility 	totalCO2Emission 	689.3456255203
scalar RSUExampleScenario.node[32].veinsmobility 	startTime 	96.1
scalar RSUExampleScenario.node[32].veinsmobility 	totalTime 	270.5
scalar RSUExampleScenario.node[32].veinsmobility 	stopTime 	366.7
scalar RSUExampleScenario.node[32].veinsmobility 	minSpeed 	0.25837410961278
scalar RSUExampleScenario.node[32].veinsmobility 	maxSpeed 	13.999979938501
scalar RSUExampleScenario.node[32].veinsmobility 	totalDistance 	3409.6246472208
scalar RSUExampleScenario.node[32].veinsmobility 	totalCO2Emission 	692.60409953554
scalar RSUExampleScenario.node[33].veinsmobility 	startTime 	99.1
scalar RSUExampleScenario.node[33].veinsmobility 	totalTime 	271.1
scalar RSUExampleScenario.node[33].veinsmobility 	stopTime 	370.3
scalar RSUExampleScenario.node[33].veinsmobility 	minSpeed 	0.25254451289494
scalar RSUExampleScenario.node[33].veinsmobility 	maxSpeed 	13.999979791974
scalar RSUExampleScenario.node[33].veinsmobility 	totalDistance 	3414.2365910884
scalar RSUExampleScenario.node[33].veinsmobility 	totalCO2Emission 	695.76012180967
scalar RSUExampleScenario.node[34].veinsmobility 	startTime 	102.1
scalar RSUExampleScenario.node[34].veinsmobility 	totalTime 	271.8
scalar RSUExampleScenario.node[34].veinsmobility 	stopTime 	374
scalar RSUExampleScenario.node[34].veinsmobility 	minSpeed 	0.25021208991646
scalar RSUExampleScenario.node[34].veinsmobility 	maxSpeed 	13.999998765399
scalar RSUExampleScenario.node[34].veinsmobility 	totalDistance 	3410.0324442346
scalar RSUExampleScenario.node[34].veinsmobility 	totalCO2Emission 	696.44937005697
scalar RSUExampleScenario.node[35].veinsmobility 	startTime 	105.1
scalar RSUExampleScenario.node[35].veinsmobility 	totalTime 	272.5
scalar RSUExampleScenario.node[35].veinsmobility 	stopTime 	377.7
scalar RSUExampleScenario.node[35].veinsmobility 	minSpeed 	0.25692414352973
scalar RSUExampleScenario.node[35].veinsmobility 	maxSpeed 	13.999973545147
scalar RSUExampleScenario.node[35].veinsmobility 	totalDistance 	3414.1059925906
scalar RSUExampleScenario.node[35].veinsmobility 	totalCO2Emission 	693.99840247416
scalar RSUExampleScenario.node[36].veinsmobility 	startTime 	108.1
scalar RSUExampleScenario.node[36].veinsmobility 	totalTime 	273.1
scalar RSUExampleScenario.node[36].veinsmobility 	stopTime 	381.3
scalar RSUExampleScenario.node[36].veinsmobility 	minSpeed 	0.25995085598761
scalar RSUExampleScenario.node[36].veinsmobility 	maxSpeed 	13.99986214692
scalar RSUExampleScenario.node[36].veinsmobility 	totalDistance 	3409.3799025384
scalar RSUExampleScenario.node[36].veinsmobility 	totalCO2Emission 	694.5243995252
scalar RSUExampleScenario.node[37].veinsmobility 	startTime 	111.1
scalar RSUExampleScenario.node[37].veinsmobility 	totalTime 	273.8
scalar RSUExampleScenario.node[37].veinsmobility 	stopTime 	385
scalar RSUExampleScenario.node[37].veinsmobility 	minSpeed 	0.25686883018492
scalar RSUExampleScenario.node[37].veinsmobility 	maxSpeed 	13.99986242366
scalar RSUExampleScenario.node[37].veinsmobility 	totalDistance 	3414.0278676067
scalar RSUExampleScenario.node[37].veinsmobility 	totalCO2Emission 	692.64028234485
scalar RSUExampleScenario.node[38].veinsmobility 	startTime 	114.1
scalar RSUExampleScenario.node[38].veinsmobility 	totalTime 	274.4
scalar RSUExampleScenario.node[38].veinsmobility 	stopTime 	388.6
scalar RSUExampleScenario.node[38].veinsmobility 	minSpeed 	0.25398350427323
scalar RSUExampleScenario.node[38].veinsmobility 	maxSpeed 	13.999545756807
scalar RSUExampleScenario.node[38].veinsmobility 	totalDistance 	3409.4929720663
scalar RSUExampleScenario.node[38].veinsmobility 	totalCO2Emission 	694.64689508249
scalar RSUExampleScenario.node[39].veinsmobility 	startTime 	117.1
scalar RSUExampleScenario.node[39].veinsmobility 	totalTime 	275
scalar RSUExampleScenario.node[39].veinsmobility 	stopTime 	392.2
scalar RSUExampleScenario.node[39].veinsmobility 	minSpeed 	0.25986944657401
scalar RSUExampleScenario.node[39].veinsmobility 	maxSpeed 	13.999996166227
scalar RSUExampleScenario.node[39].veinsmobility 	totalDistance 	3413.704047851
scalar RSUExampleScenario.node[39].veinsmobility 	totalCO2Emission 	696.62031964942
scalar RSUExampleScenario.node[40].veinsmobility 	startTime 	120.1
scalar RSUExampleScenario.node[40].veinsmobility 	totalTime 	275.7
scalar RSUExampleScenario.node[40].veinsmobility 	stopTime 	395.9
scalar RSUExampleScenario.node[40].veinsmobility 	minSpeed 	0.25243049060367
scalar RSUExampleScenario.node[40].veinsmobility 	maxSpeed 	13.999651404177
scalar RSUExampleScenario.node[40].veinsmobility 	totalDistance 	3409.714374949
scalar RSUExampleScenario.node[40].veinsmobility 	totalCO2Emission 	696.26140764682
scalar RSUExampleScenario.node[41].veinsmobility 	startTime 	123.1
scalar RSUExampleScenario.node[41].veinsmobility 	totalTime 	276.5
scalar RSUExampleScenario.node[41].veinsmobility 	stopTime 	399.7
scalar RSUExampleScenario.node[41].veinsmobility 	minSpeed 	0.24740523622232
scalar RSUExampleScenario.node[41].veinsmobility 	maxSpeed 	13.99981670042
scalar RSUExampleScenario.node[41].veinsmobility 	totalDistance 	3414.3200727683
scalar RSUExampleScenario.node[41].veinsmobility 	totalCO2Emission 	700.09112639346
scalar RSUExampleScenario.node[42].veinsmobility 	startTime 	126.1
scalar RSUExampleScenario.node[42].veinsmobility 	totalTime 	277.2
scalar RSUExampleScenario.node[42].veinsmobility 	stopTime 	403.4
scalar RSUExampleScenario.node[42].veinsmobility 	minSpeed 	0.25649848735123
scalar RSUExampleScenario.node[42].veinsmobility 	maxSpeed 	13.999989704981
scalar RSUExampleScenario.node[42].veinsmobility 	totalDistance 	3409.6538346514
scalar RSUExampleScenario.node[42].veinsmobility 	totalCO2Emission 	701.18864857949
scalar RSUExampleScenario.node[43].veinsmobility 	startTime 	129.1
scalar RSUExampleScenario.node[43].veinsmobility 	totalTime 	277.9
scalar RSUExampleScenario.node[43].veinsmobility 	stopTime 	407.1
scalar RSUExampleScenario.node[43].veinsmobility 	minSpeed 	0.25876463297079
scalar RSUExampleScenario.node[43].veinsmobility 	maxSpeed 	13.999947352111
scalar RSUExampleScenario.node[43].veinsmobility 	totalDistance 	3413.9498137052
scalar RSUExampleScenario.node[43].veinsmobility 	totalCO2Emission 	700.16095258389
scalar RSUExampleScenario.node[44].veinsmobility 	startTime 	132.1
scalar RSUExampleScenario.node[44].veinsmobility 	totalTime 	278.6
scalar RSUExampleScenario.node[44].veinsmobility 	stopTime 	410.8
scalar RSUExampleScenario.node[44].veinsmobility 	minSpeed 	0.24813746972475
scalar RSUExampleScenario.node[44].veinsmobility 	maxSpeed 	13.999878909057
scalar RSUExampleScenario.node[44].veinsmobility 	totalDistance 	3410.0495896909
scalar RSUExampleScenario.node[44].veinsmobility 	totalCO2Emission 	699.79296950776
scalar RSUExampleScenario.node[45].veinsmobility 	startTime 	135.1
scalar RSUExampleScenario.node[45].veinsmobility 	totalTime 	279.3
scalar RSUExampleScenario.node[45].veinsmobility 	stopTime 	414.5
scalar RSUExampleScenario.node[45].veinsmobility 	minSpeed 	0.25614508157317
scalar RSUExampleScenario.node[45].veinsmobility 	maxSpeed 	13.999960827176
scalar RSUExampleScenario.node[45].veinsmobility 	totalDistance 	3413.8757283356
scalar RSUExampleScenario.node[45].veinsmobility 	totalCO2Emission 	701.51679206086
scalar RSUExampleScenario.node[46].veinsmobility 	startTime 	138.1
scalar RSUExampleScenario.node[46].veinsmobility 	totalTime 	280
scalar RSUExampleScenario.node[46].veinsmobility 	stopTime 	418.2
scalar RSUExampleScenario.node[46].veinsmobility 	minSpeed 	0.25821188212815
scalar RSUExampleScenario.node[46].veinsmobility 	maxSpeed 	13.999900757154
scalar RSUExampleScenario.node[46].veinsmobility 	totalDistance 	3409.925649193
scalar RSUExampleScenario.node[46].veinsmobility 	totalCO2Emission 	703.99656341477
scalar RSUExampleScenario.node[47].veinsmobility 	startTime 	141.1
scalar RSUExampleScenario.node[47].veinsmobility 	totalTime 	280.6
scalar RSUExampleScenario.node[47].veinsmobility 	stopTime 	421.8
scalar RSUExampleScenario.node[47].veinsmobility 	minSpeed 	0.25991664640722
scalar RSUExampleScenario.node[47].veinsmobility 	maxSpeed 	13.999980844755
scalar RSUExampleScenario.node[47].veinsmobility 	totalDistance 	3413.6088933139
scalar RSUExampleScenario.node[47].veinsmobility 	totalCO2Emission 	698.27590235651
scalar RSUExampleScenario.node[48].veinsmobility 	startTime 	144.1
scalar RSUExampleScenario.node[48].veinsmobility 	totalTime 	281.3
scalar RSUExampleScenario.node[48].veinsmobility 	stopTime 	425.5
scalar RSUExampleScenario.node[48].veinsmobility 	minSpeed 	0.25093235522206
scalar RSUExampleScenario.node[48].veinsmobility 	maxSpeed 	13.999940169035
scalar RSUExampleScenario.node[48].veinsmobility 	totalDistance 	3409.6296335349
scalar RSUExampleScenario.node[48].veinsmobility 	totalCO2Emission 	700.59058321654
scalar RSUExampleScenario.node[49].veinsmobility 	startTime 	147.1
scalar RSUExampleScenario.node[49].veinsmobility 	totalTime 	282
scalar RSUExampleScenario.node[49].veinsmobility 	stopTime 	429.2
scalar RSUExampleScenario.node[49].veinsmobility 	minSpeed 	0.25178970461618
scalar RSUExampleScenario.node[49].veinsmobility 	maxSpeed 	13.999968409154
scalar RSUExampleScenario.node[49].veinsmobility 	totalDistance 	3414.1524396396
scalar RSUExampleScenario.node[49].veinsmobility 	totalCO2Emission 	704.84595445375
scalar RSUExampleScenario.node[50].veinsmobility 	startTime 	150.1
scalar RSUExampleScenario.node[50].veinsmobility 	totalTime 	282.7
scalar RSUExampleScenario.node[50].veinsmobility 	stopTime 	432.9
scalar RSUExampleScenario.node[50].veinsmobility 	minSpeed 	0.25067207979527
scalar RSUExampleScenario.node[50].veinsmobility 	maxSpeed 	13.999920932006
scalar RSUExampleScenario.node[50].veinsmobility 	totalDistance 	3409.625383003
scalar RSUExampleScenario.node[50].veinsmobility 	totalCO2Emission 	705.58901175365
scalar RSUExampleScenario.node[51].veinsmobility 	startTime 	153.1
scalar RSUExampleScenario.node[51].veinsmobility 	totalTime 	283.5
scalar RSUExampleScenario.node[51].veinsmobility 	stopTime 	436.7
scalar RSUExampleScenario.node[51].veinsmobility 	minSpeed 	0.25595678488561
scalar RSUExampleScenario.node[51].veinsmobility 	maxSpeed 	13.999950816766
scalar RSUExampleScenario.node[51].veinsmobility 	totalDistance 	3414.1724086091
scalar RSUExampleScenario.node[51].veinsmobility 	totalCO2Emission 	703.63848692787
scalar RSUExampleScenario.node[52].veinsmobility 	startTime 	156.1
scalar RSUExampleScenario.node[52].veinsmobility 	totalTime 	284.2
scalar RSUExampleScenario.node[52].veinsmobility 	stopTime 	440.4
scalar RSUExampleScenario.node[52].veinsmobility 	minSpeed 	0.25514121505525
scalar RSUExampleScenario.node[52].veinsmobility 	maxSpeed 	13.999765135217
scalar RSUExampleScenario.node[52].veinsmobility 	totalDistance 	3409.6675815383
scalar RSUExampleScenario.node[52].veinsmobility 	totalCO2Emission 	702.08113627036
scalar RSUExampleScenario.node[53].veinsmobility 	startTime 	159.1
scalar RSUExampleScenario.node[53].veinsmobility 	totalTime 	284.9
scalar RSUExampleScenario.node[53].veinsmobility 	stopTime 	444.1
scalar RSUExampleScenario.node[53].veinsmobility 	minSpeed 	0.25139154376509
scalar RSUExampleScenario.node[53].veinsmobility 	maxSpeed 	13.999995175283
scalar RSUExampleScenario.node[53].veinsmobility 	totalDistance 	3410.0752160017
scalar RSUExampleScenario.node[53].veinsmobility 	totalCO2Emission 	708.43938427626
scalar RSUExampleScenario.node[54].veinsmobility 	startTime 	162.1
scalar RSUExampleScenario.node[54].veinsmobility 	totalTime 	285.5
scalar RSUExampleScenario.node[54].veinsmobility 	stopTime 	447.7
scalar RSUExampleScenario.node[54].veinsmobility 	minSpeed 	0.25203635069681
scalar RSUExampleScenario.node[54].veinsmobility 	maxSpeed 	13.999756414981
scalar RSUExampleScenario.node[54].veinsmobility 	totalDistance 	3413.8539013974
scalar RSUExampleScenario.node[54].veinsmobility 	totalCO2Emission 	708.44217994262
scalar RSUExampleScenario.node[55].veinsmobility 	startTime 	165.1
scalar RSUExampleScenario.node[55].veinsmobility 	totalTime 	286.1
scalar RSUExampleScenario.node[55].veinsmobility 	stopTime 	451.3
scalar RSUExampleScenario.node[55].veinsmobility 	minSpeed 	0.25011928862962
scalar RSUExampleScenario.node[55].veinsmobility 	maxSpeed 	13.99996711323
scalar RSUExampleScenario.node[55].veinsmobility 	totalDistance 	3409.6874384402
scalar RSUExampleScenario.node[55].veinsmobility 	totalCO2Emission 	710.24669874773
scalar RSUExampleScenario.node[56].veinsmobility 	startTime 	168.1
scalar RSUExampleScenario.node[56].veinsmobility 	totalTime 	286.7
scalar RSUExampleScenario.node[56].veinsmobility 	stopTime 	454.9
scalar RSUExampleScenario.node[56].veinsmobility 	minSpeed 	0.25931230669213
scalar RSUExampleScenario.node[56].veinsmobility 	maxSpeed 	13.99992274987
scalar RSUExampleScenario.node[56].veinsmobility 	totalDistance 	3409.7370823327
scalar RSUExampleScenario.node[56].veinsmobility 	totalCO2Emission 	707.53202558314
scalar RSUExampleScenario.node[57].veinsmobility 	startTime 	171.1
scalar RSUExampleScenario.node[57].veinsmobility 	totalTime 	287.4
scalar RSUExampleScenario.node[57].veinsmobility 	stopTime 	458.6
scalar RSUExampleScenario.node[57].veinsmobility 	minSpeed 	0.25087587400828
scalar RSUExampleScenario.node[57].veinsmobility 	maxSpeed 	13.999970513324
scalar RSUExampleScenario.node[57].veinsmobility 	totalDistance 	3414.1035706457
scalar RSUExampleScenario.node[57].veinsmobility 	totalCO2Emission 	708.33951845232
scalar RSUExampleScenario.node[58].veinsmobility 	startTime 	174.1
scalar RSUExampleScenario.node[58].veinsmobility 	totalTime 	288.1
scalar RSUExampleScenario.node[58].veinsmobility 	stopTime 	462.3
scalar RSUExampleScenario.node[58].veinsmobility 	minSpeed 	0.25434552564216
scalar RSUExampleScenario.node[58].veinsmobility 	maxSpeed 	13.999876206883
scalar RSUExampleScenario.node[58].veinsmobility 	totalDistance 	3410.0020897864
scalar RSUExampleScenario.node[58].veinsmobility 	totalCO2Emission 	708.37382331913
scalar RSUExampleScenario.node[59].veinsmobility 	startTime 	177.1
scalar RSUExampleScenario.node[59].veinsmobility 	totalTime 	288.8
scalar RSUExampleScenario.node[59].veinsmobility 	stopTime 	466
scalar RSUExampleScenario.node[59].veinsmobility 	minSpeed 	0.25700814216048
scalar RSUExampleScenario.node[59].veinsmobility 	maxSpeed 	13.999969469109
scalar RSUExampleScenario.node[59].veinsmobility 	totalDistance 	3413.7546830601
scalar RSUExampleScenario.node[59].veinsmobility 	totalCO2Emission 	713.18175278691
scalar RSUExampleScenario.node[60].veinsmobility 	startTime 	180.1
scalar RSUExampleScenario.node[60].veinsmobility 	totalTime 	289.4
scalar RSUExampleScenario.node[60].veinsmobility 	stopTime 	469.6
scalar RSUExampleScenario.node[60].veinsmobility 	minSpeed 	0.2507259931732
scalar RSUExampleScenario.node[60].veinsmobility 	maxSpeed 	13.999984980028
scalar RSUExampleScenario.node[60].veinsmobility 	totalDistance 	3409.5808905556
scalar RSUExampleScenario.node[60].veinsmobility 	totalCO2Emission 	714.0220215539
scalar RSUExampleScenario.node[61].veinsmobility 	startTime 	183.1
scalar RSUExampleScenario.node[61].veinsmobility 	totalTime 	290
scalar RSUExampleScenario.node[61].veinsmobility 	stopTime 	473.2
scalar RSUExampleScenario.node[61].veinsmobility 	minSpeed 	0.25986136003118
scalar RSUExampleScenario.node[61].veinsmobility 	maxSpeed 	13.999985226893
scalar RSUExampleScenario.node[61].veinsmobility 	totalDistance 	3413.6122948098
scalar RSUExampleScenario.node[61].veinsmobility 	totalCO2Emission 	713.95726425918
scalar RSUExampleScenario.node[62].veinsmobility 	startTime 	186.1
scalar RSUExampleScenario.node[62].veinsmobility 	totalTime 	290.6
scalar RSUExampleScenario.node[62].veinsmobility 	stopTime 	476.8
scalar RSUExampleScenario.node[62].veinsmobility 	minSpeed 	0.24743011053302
scalar RSUExampleScenario.node[62].veinsmobility 	maxSpeed 	13.999806577081
scalar RSUExampleScenario.node[62].veinsmobility 	totalDistance 	3409.5728323052
scalar RSUExampleScenario.node[62].veinsmobility 	totalCO2Emission 	713.33059679666
scalar RSUExampleScenario.node[63].veinsmobility 	startTime 	189.1
scalar RSUExampleScenario.node[63].veinsmobility 	totalTime 	291.2
scalar RSUExampleScenario.node[63].veinsmobility 	stopTime 	480.4
scalar RSUExampleScenario.node[63].veinsmobility 	minSpeed 	0.25540398036875
scalar RSUExampleScenario.node[63].veinsmobility 	maxSpeed 	13.999868977405
scalar RSUExampleScenario.node[63].veinsmobility 	totalDistance 	3409.438101034
scalar RSUExampleScenario.node[63].veinsmobility 	totalCO2Emission 	713.17829603271
scalar RSUExampleScenario.node[64].veinsmobility 	startTime 	192.1
scalar RSUExampleScenario.node[64].veinsmobility 	totalTime 	292
scalar RSUExampleScenario.node[64].veinsmobility 	stopTime 	484.2
scalar RSUExampleScenario.node[64].veinsmobility 	minSpeed 	0.25672788479761
scalar RSUExampleScenario.node[64].veinsmobility 	maxSpeed 	13.999900122252
scalar RSUExampleScenario.node[64].veinsmobility 	totalDistance 	3414.1309547485
scalar RSUExampleScenario.node[64].veinsmobility 	totalCO2Emission 	719.6609363566
scalar RSUExampleScenario.node[65].veinsmobility 	startTime 	195.1
scalar RSUExampleScenario.node[65].veinsmobility 	totalTime 	292.8
scalar RSUExampleScenario.node[65].veinsmobility 	stopTime 	488
scalar RSUExampleScenario.node[65].veinsmobility 	minSpeed 	0.25668658628897
scalar RSUExampleScenario.node[65].veinsmobility 	maxSpeed 	13.999989137971
scalar RSUExampleScenario.node[65].veinsmobility 	totalDistance 	3410.0253148216
scalar RSUExampleScenario.node[65].veinsmobility 	totalCO2Emission 	713.49107420296
scalar RSUExampleScenario.node[66].veinsmobility 	startTime 	198.1
scalar RSUExampleScenario.node[66].veinsmobility 	totalTime 	293.4
scalar RSUExampleScenario.node[66].veinsmobility 	stopTime 	491.6
scalar RSUExampleScenario.node[66].veinsmobility 	minSpeed 	0.25712301455531
scalar RSUExampleScenario.node[66].veinsmobility 	maxSpeed 	13.999988870372
scalar RSUExampleScenario.node[66].veinsmobility 	totalDistance 	3413.5655491038
scalar RSUExampleScenario.node[66].veinsmobility 	totalCO2Emission 	714.36219583534
scalar RSUExampleScenario.node[67].veinsmobility 	startTime 	201.1
scalar RSUExampleScenario.node[67].veinsmobility 	totalTime 	294
scalar RSUExampleScenario.node[67].veinsmobility 	stopTime 	495.2
scalar RSUExampleScenario.node[67].veinsmobility 	minSpeed 	0.25821822049515
scalar RSUExampleScenario.node[67].veinsmobility 	maxSpeed 	13.999980217421
scalar RSUExampleScenario.node[67].veinsmobility 	totalDistance 	3409.5568301886
scalar RSUExampleScenario.node[67].veinsmobility 	totalCO2Emission 	716.54985515004
scalar RSUExampleScenario.node[68].veinsmobility 	startTime 	204.1
scalar RSUExampleScenario.node[68].veinsmobility 	totalTime 	294.6
scalar RSUExampleScenario.node[68].veinsmobility 	stopTime 	498.8
scalar RSUExampleScenario.node[68].veinsmobility 	minSpeed 	0.25543275911314
scalar RSUExampleScenario.node[68].veinsmobility 	maxSpeed 	13.999917478792
scalar RSUExampleScenario.node[68].veinsmobility 	totalDistance 	3414.1148461832
scalar RSUExampleScenario.node[68].veinsmobility 	totalCO2Emission 	716.53386973948
scalar RSUExampleScenario.node[69].veinsmobility 	startTime 	207.1
scalar RSUExampleScenario.node[69].veinsmobility 	totalTime 	295.2
scalar RSUExampleScenario.node[69].veinsmobility 	stopTime 	502.4
scalar RSUExampleScenario.node[69].veinsmobility 	minSpeed 	0.25246625579498
scalar RSUExampleScenario.node[69].veinsmobility 	maxSpeed 	13.999854817195
scalar RSUExampleScenario.node[69].veinsmobility 	totalDistance 	3409.52200427
scalar RSUExampleScenario.node[69].veinsmobility 	totalCO2Emission 	716.14364775433
scalar RSUExampleScenario.node[70].veinsmobility 	startTime 	210.1
scalar RSUExampleScenario.node[70].veinsmobility 	totalTime 	295.8
scalar RSUExampleScenario.node[70].veinsmobility 	stopTime 	506
scalar RSUExampleScenario.node[70].veinsmobility 	minSpeed 	0.25399948051712
scalar RSUExampleScenario.node[70].veinsmobility 	maxSpeed 	13.999962140322
scalar RSUExampleScenario.node[70].veinsmobility 	totalDistance 	3413.8613270232
scalar RSUExampleScenario.node[70].veinsmobility 	totalCO2Emission 	720.97595028363
scalar RSUExampleScenario.node[71].veinsmobility 	startTime 	213.1
scalar RSUExampleScenario.node[71].veinsmobility 	totalTime 	296.5
scalar RSUExampleScenario.node[71].veinsmobility 	stopTime 	509.7
scalar RSUExampleScenario.node[71].veinsmobility 	minSpeed 	0.25488198101358
scalar RSUExampleScenario.node[71].veinsmobility 	maxSpeed 	13.999974633523
scalar RSUExampleScenario.node[71].veinsmobility 	totalDistance 	3409.747585468
scalar RSUExampleScenario.node[71].veinsmobility 	totalCO2Emission 	719.79352719109
scalar RSUExampleScenario.node[72].veinsmobility 	startTime 	216.1
scalar RSUExampleScenario.node[72].veinsmobility 	totalTime 	297.2
scalar RSUExampleScenario.node[72].veinsmobility 	stopTime 	513.4
scalar RSUExampleScenario.node[72].veinsmobility 	minSpeed 	0.2556139295157
scalar RSUExampleScenario.node[72].veinsmobility 	maxSpeed 	13.999878624084
scalar RSUExampleScenario.node[72].veinsmobility 	totalDistance 	3414.2714937399
scalar RSUExampleScenario.node[72].veinsmobility 	totalCO2Emission 	719.89280799995
scalar RSUExampleScenario.node[73].veinsmobility 	startTime 	219.1
scalar RSUExampleScenario.node[73].veinsmobility 	totalTime 	297.9
scalar RSUExampleScenario.node[73].veinsmobility 	stopTime 	517.1
scalar RSUExampleScenario.node[73].veinsmobility 	minSpeed 	0.24771012851247
scalar RSUExampleScenario.node[73].veinsmobility 	maxSpeed 	13.999987772279
scalar RSUExampleScenario.node[73].veinsmobility 	totalDistance 	3409.8277216945
scalar RSUExampleScenario.node[73].veinsmobility 	totalCO2Emission 	719.9547754218
scalar RSUExampleScenario.node[74].veinsmobility 	startTime 	222.1
scalar RSUExampleScenario.node[74].veinsmobility 	totalTime 	298.6
scalar RSUExampleScenario.node[74].veinsmobility 	stopTime 	520.8
scalar RSUExampleScenario.node[74].veinsmobility 	minSpeed 	0.25582260540058
scalar RSUExampleScenario.node[74].veinsmobility 	maxSpeed 	13.99994584522
scalar RSUExampleScenario.node[74].veinsmobility 	totalDistance 	3413.58850264
scalar RSUExampleScenario.node[74].veinsmobility 	totalCO2Emission 	719.22928603792
scalar RSUExampleScenario.node[75].veinsmobility 	startTime 	225.1
scalar RSUExampleScenario.node[75].veinsmobility 	totalTime 	299.3
scalar RSUExampleScenario.node[75].veinsmobility 	stopTime 	524.5
scalar RSUExampleScenario.node[75].veinsmobility 	minSpeed 	0.2560491399013
scalar RSUExampleScenario.node[75].veinsmobility 	maxSpeed 	13.999749322981
scalar RSUExampleScenario.node[75].veinsmobility 	totalDistance 	3409.6112958759
scalar RSUExampleScenario.node[75].veinsmobility 	totalCO2Emission 	714.84932982933
scalar RSUExampleScenario.node[76].veinsmobility 	startTime 	228.1
scalar RSUExampleScenario.node[76].veinsmobility 	totalTime 	300
scalar RSUExampleScenario.node[76].veinsmobility 	stopTime 	528.2
scalar RSUExampleScenario.node[76].veinsmobility 	minSpeed 	0.25324069713498
scalar RSUExampleScenario.node[76].veinsmobility 	maxSpeed 	13.999768165345
scalar RSUExampleScenario.node[76].veinsmobility 	totalDistance 	3414.0693724675
scalar RSUExampleScenario.node[76].veinsmobility 	totalCO2Emission 	725.85454060913
scalar RSUExampleScenario.node[77].veinsmobility 	startTime 	231.1
scalar RSUExampleScenario.node[77].veinsmobility 	totalTime 	300.7
scalar RSUExampleScenario.node[77].veinsmobility 	stopTime 	531.9
scalar RSUExampleScenario.node[77].veinsmobility 	minSpeed 	0.24799581060628
scalar RSUExampleScenario.node[77].veinsmobility 	maxSpeed 	13.999940525258
scalar RSUExampleScenario.node[77].veinsmobility 	totalDistance 	3409.780634285
scalar RSUExampleScenario.node[77].veinsmobility 	totalCO2Emission 	722.012309387
scalar RSUExampleScenario.node[78].veinsmobility 	startTime 	234.1
scalar RSUExampleScenario.node[78].veinsmobility 	totalTime 	301.4
scalar RSUExampleScenario.node[78].veinsmobility 	stopTime 	535.6
scalar RSUExampleScenario.node[78].veinsmobility 	minSpeed 	0.25633485092525
scalar RSUExampleScenario.node[78].veinsmobility 	maxSpeed 	13.999979458936
scalar RSUExampleScenario.node[78].veinsmobility 	totalDistance 	3414.0634134112
scalar RSUExampleScenario.node[78].veinsmobility 	totalCO2Emission 	721.87714906317
scalar RSUExampleScenario.node[79].veinsmobility 	startTime 	237.1
scalar RSUExampleScenario.node[79].veinsmobility 	totalTime 	302.1
scalar RSUExampleScenario.node[79].veinsmobility 	stopTime 	539.3
scalar RSUExampleScenario.node[79].veinsmobility 	minSpeed 	0.25735946408473
scalar RSUExampleScenario.node[79].veinsmobility 	maxSpeed 	13.999963555925
scalar RSUExampleScenario.node[79].veinsmobility 	totalDistance 	3409.9867245432
scalar RSUExampleScenario.node[79].veinsmobility 	totalCO2Emission 	724.83523333279
scalar RSUExampleScenario.node[80].veinsmobility 	startTime 	240.1
scalar RSUExampleScenario.node[80].veinsmobility 	totalTime 	302.8
scalar RSUExampleScenario.node[80].veinsmobility 	stopTime 	543
scalar RSUExampleScenario.node[80].veinsmobility 	minSpeed 	0.25514553782274
scalar RSUExampleScenario.node[80].veinsmobility 	maxSpeed 	13.999873310479
scalar RSUExampleScenario.node[80].veinsmobility 	totalDistance 	3413.9358704041
scalar RSUExampleScenario.node[80].veinsmobility 	totalCO2Emission 	726.63003884699
scalar RSUExampleScenario.node[81].veinsmobility 	startTime 	243.1
scalar RSUExampleScenario.node[81].veinsmobility 	totalTime 	303.5
scalar RSUExampleScenario.node[81].veinsmobility 	stopTime 	546.7
scalar RSUExampleScenario.node[81].veinsmobility 	minSpeed 	0.24844708453468
scalar RSUExampleScenario.node[81].veinsmobility 	maxSpeed 	13.999854290471
scalar RSUExampleScenario.node[81].veinsmobility 	totalDistance 	3409.9550613994
scalar RSUExampleScenario.node[81].veinsmobility 	totalCO2Emission 	726.09361832722
scalar RSUExampleScenario.node[82].veinsmobility 	startTime 	246.1
scalar RSUExampleScenario.node[82].veinsmobility 	totalTime 	304.2
scalar RSUExampleScenario.node[82].veinsmobility 	stopTime 	550.4
scalar RSUExampleScenario.node[82].veinsmobility 	minSpeed 	0.24826059322641
scalar RSUExampleScenario.node[82].veinsmobility 	maxSpeed 	13.999915509284
scalar RSUExampleScenario.node[82].veinsmobility 	totalDistance 	3410.1713295654
scalar RSUExampleScenario.node[82].veinsmobility 	totalCO2Emission 	723.32569186924
scalar RSUExampleScenario.node[83].veinsmobility 	startTime 	249.1
scalar RSUExampleScenario.node[83].veinsmobility 	totalTime 	304.9
scalar RSUExampleScenario.node[83].veinsmobility 	stopTime 	554.1
scalar RSUExampleScenario.node[83].veinsmobility 	minSpeed 	0.24949094297411
scalar RSUExampleScenario.node[83].veinsmobility 	maxSpeed 	13.999968423017
scalar RSUExampleScenario.node[83].veinsmobility 	totalDistance 	3413.7984048019
scalar RSUExampleScenario.node[83].veinsmobility 	totalCO2Emission 	726.10243348218
scalar RSUExampleScenario.node[84].veinsmobility 	startTime 	252.1
scalar RSUExampleScenario.node[84].veinsmobility 	totalTime 	305.6
scalar RSUExampleScenario.node[84].veinsmobility 	stopTime 	557.8
scalar RSUExampleScenario.node[84].veinsmobility 	minSpeed 	0.25988244066783
scalar RSUExampleScenario.node[84].veinsmobility 	maxSpeed 	13.999845505673
scalar RSUExampleScenario.node[84].veinsmobility 	totalDistance 	3409.9386478938
scalar RSUExampleScenario.node[84].veinsmobility 	totalCO2Emission 	726.75479661952
scalar RSUExampleScenario.node[85].veinsmobility 	startTime 	255.1
scalar RSUExampleScenario.node[85].veinsmobility 	totalTime 	306.3
scalar RSUExampleScenario.node[85].veinsmobility 	stopTime 	561.5
scalar RSUExampleScenario.node[85].veinsmobility 	minSpeed 	0.24855225402187
scalar RSUExampleScenario.node[85].veinsmobility 	maxSpeed 	13.999807337928
scalar RSUExampleScenario.node[85].veinsmobility 	totalDistance 	3413.9860132389
scalar RSUExampleScenario.node[85].veinsmobility 	totalCO2Emission 	727.77723041715
scalar RSUExampleScenario.node[86].veinsmobility 	startTime 	258.1
scalar RSUExampleScenario.node[86].veinsmobility 	totalTime 	307
scalar RSUExampleScenario.node[86].veinsmobility 	stopTime 	565.2
scalar RSUExampleScenario.node[86].veinsmobility 	minSpeed 	0.2512160556044
scalar RSUExampleScenario.node[86].veinsmobility 	maxSpeed 	13.999900520095
scalar RSUExampleScenario.node[86].veinsmobility 	totalDistance 	3409.805047311
scalar RSUExampleScenario.node[86].veinsmobility 	totalCO2Emission 	729.62424068348
scalar RSUExampleScenario.node[87].veinsmobility 	startTime 	261.1
scalar RSUExampleScenario.node[87].veinsmobility 	totalTime 	307.7
scalar RSUExampleScenario.node[87].veinsmobility 	stopTime 	568.9
scalar RSUExampleScenario.node[87].veinsmobility 	minSpeed 	0.25816682124557
scalar RSUExampleScenario.node[87].veinsmobility 	maxSpeed 	13.999991912667
scalar RSUExampleScenario.node[87].veinsmobility 	totalDistance 	3413.9699583911
scalar RSUExampleScenario.node[87].veinsmobility 	totalCO2Emission 	735.27104699518
scalar RSUExampleScenario.node[88].veinsmobility 	startTime 	264.1
scalar RSUExampleScenario.node[88].veinsmobility 	totalTime 	308.4
scalar RSUExampleScenario.node[88].veinsmobility 	stopTime 	572.6
scalar RSUExampleScenario.node[88].veinsmobility 	minSpeed 	0.25566185522359
scalar RSUExampleScenario.node[88].veinsmobility 	maxSpeed 	13.99997782619
scalar RSUExampleScenario.node[88].veinsmobility 	totalDistance 	3409.6860115793
scalar RSUExampleScenario.node[88].veinsmobility 	totalCO2Emission 	729.81962964549
scalar RSUExampleScenario.node[89].veinsmobility 	startTime 	267.1
scalar RSUExampleScenario.node[89].veinsmobility 	totalTime 	309.2
scalar RSUExampleScenario.node[89].veinsmobility 	stopTime 	576.4
scalar RSUExampleScenario.node[89].veinsmobility 	minSpeed 	0.25798226655251
scalar RSUExampleScenario.node[89].veinsmobility 	maxSpeed 	13.999876034779
scalar RSUExampleScenario.node[89].veinsmobility 	totalDistance 	3413.9391023241
scalar RSUExampleScenario.node[89].veinsmobility 	totalCO2Emission 	728.06594653897
scalar RSUExampleScenario.node[90].veinsmobility 	startTime 	270.1
scalar RSUExampleScenario.node[90].veinsmobility 	totalTime 	309.9
scalar RSUExampleScenario.node[90].veinsmobility 	stopTime 	580.1
scalar RSUExampleScenario.node[90].veinsmobility 	minSpeed 	0.24827718286915
scalar RSUExampleScenario.node[90].veinsmobility 	maxSpeed 	13.999902951582
scalar RSUExampleScenario.node[90].veinsmobility 	totalDistance 	3409.7936592869
scalar RSUExampleScenario.node[90].veinsmobility 	totalCO2Emission 	731.54880603475
scalar RSUExampleScenario.node[91].veinsmobility 	startTime 	273.1
scalar RSUExampleScenario.node[91].veinsmobility 	totalTime 	310.6
scalar RSUExampleScenario.node[91].veinsmobility 	stopTime 	583.8
scalar RSUExampleScenario.node[91].veinsmobility 	minSpeed 	0.25987730523222
scalar RSUExampleScenario.node[91].veinsmobility 	maxSpeed 	13.999832857137
scalar RSUExampleScenario.node[91].veinsmobility 	totalDistance 	3413.7667200958
scalar RSUExampleScenario.node[91].veinsmobility 	totalCO2Emission 	732.20491567066
scalar RSUExampleScenario.node[92].veinsmobility 	startTime 	276.1
scalar RSUExampleScenario.node[92].veinsmobility 	totalTime 	311.3
scalar RSUExampleScenario.node[92].veinsmobility 	stopTime 	587.5
scalar RSUExampleScenario.node[92].veinsmobility 	minSpeed 	0.25175025547529
scalar RSUExampleScenario.node[92].veinsmobility 	maxSpeed 	13.99997779577
scalar RSUExampleScenario.node[92].veinsmobility 	totalDistance 	3409.8776068943
scalar RSUExampleScenario.node[92].veinsmobility 	totalCO2Emission 	735.55794557542
scalar RSUExampleScenario.node[93].veinsmobility 	startTime 	279.1
scalar RSUExampleScenario.node[93].veinsmobility 	totalTime 	312
scalar RSUExampleScenario.node[93].veinsmobility 	stopTime 	591.2
scalar RSUExampleScenario.node[93].veinsmobility 	minSpeed 	0.25788357033976
scalar RSUExampleScenario.node[93].veinsmobility 	maxSpeed 	13.999983636735
scalar RSUExampleScenario.node[93].veinsmobility 	totalDistance 	3414.2935592721
scalar RSUExampleScenario.node[93].veinsmobility 	totalCO2Emission 	736.46279007662
scalar RSUExampleScenario.node[94].veinsmobility 	startTime 	282.1
scalar RSUExampleScenario.node[94].veinsmobility 	totalTime 	312.7
scalar RSUExampleScenario.node[94].veinsmobility 	stopTime 	594.9
scalar RSUExampleScenario.node[94].veinsmobility 	minSpeed 	0.24747706851899
scalar RSUExampleScenario.node[94].veinsmobility 	maxSpeed 	13.999964861867
scalar RSUExampleScenario.node[94].veinsmobility 	totalDistance 	3409.7567450125
scalar RSUExampleScenario.node[94].veinsmobility 	totalCO2Emission 	738.47738458564
scalar RSUExampleScenario.node[95].veinsmobility 	startTime 	285.1
scalar RSUExampleScenario.node[95].veinsmobility 	totalTime 	313.4
scalar RSUExampleScenario.node[95].veinsmobility 	stopTime 	598.6
scalar RSUExampleScenario.node[95].veinsmobility 	minSpeed 	0.25628215952637
scalar RSUExampleScenario.node[95].veinsmobility 	maxSpeed 	13.9999220021
scalar RSUExampleScenario.node[95].veinsmobility 	totalDistance 	3414.0028300767
scalar RSUExampleScenario.node[95].veinsmobility 	totalCO2Emission 	731.59970421232
scalar RSUExampleScenario.node[96].veinsmobility 	startTime 	288.1
scalar RSUExampleScenario.node[96].veinsmobility 	totalTime 	314.2
scalar RSUExampleScenario.node[96].veinsmobility 	stopTime 	602.4
scalar RSUExampleScenario.node[96].veinsmobility 	minSpeed 	0.25738530670456
scalar RSUExampleScenario.node[96].veinsmobility 	maxSpeed 	13.999972774251
scalar RSUExampleScenario.node[96].veinsmobility 	totalDistance 	3409.6250534941
scalar RSUExampleScenario.node[96].veinsmobility 	totalCO2Emission 	730.50883052253
scalar RSUExampleScenario.node[97].veinsmobility 	startTime 	291.1
scalar RSUExampleScenario.node[97].veinsmobility 	totalTime 	314.9
scalar RSUExampleScenario.node[97].veinsmobility 	stopTime 	606.1
scalar RSUExampleScenario.node[97].veinsmobility 	minSpeed 	0.24770477648824
scalar RSUExampleScenario.node[97].veinsmobility 	maxSpeed 	13.999979975973
scalar RSUExampleScenario.node[97].veinsmobility 	totalDistance 	3413.7291459818
scalar RSUExampleScenario.node[97].veinsmobility 	totalCO2Emission 	736.45253005658
scalar RSUExampleScenario.node[98].veinsmobility 	startTime 	294.1
scalar RSUExampleScenario.node[98].veinsmobility 	totalTime 	315.6
scalar RSUExampleScenario.node[98].veinsmobility 	stopTime 	609.8
scalar RSUExampleScenario.node[98].veinsmobility 	minSpeed 	0.25546629772801
scalar RSUExampleScenario.node[98].veinsmobility 	maxSpeed 	13.999890937735
scalar RSUExampleScenario.node[98].veinsmobility 	totalDistance 	3409.7120390818
scalar RSUExampleScenario.node[98].veinsmobility 	totalCO2Emission 	738.88678772234
scalar RSUExampleScenario.node[99].veinsmobility 	startTime 	297.1
scalar RSUExampleScenario.node[99].veinsmobility 	totalTime 	316.3
scalar RSUExampleScenario.node[99].veinsmobility 	stopTime 	613.5
scalar RSUExampleScenario.node[99].veinsmobility 	minSpeed 	0.24800198786892
scalar RSUExampleScenario.node[99].veinsmobility 	maxSpeed 	13.9998513977
scalar RSUExampleScenario.node[99].veinsmobility 	totalDistance 	3413.6995233954
scalar RSUExampleScenario.node[99].veinsmobility 	totalCO2Emission 	739.08192606246
scalar RSUExampleScenario.node[100].veinsmobility 	startTime 	300.1
scalar RSUExampleScenario.node[100].veinsmobility 	totalTime 	317
scalar RSUExampleScenario.node[100].veinsmobility 	stopTime 	617.2
scalar RSUExampleScenario.node[100].veinsmobility 	minSpeed 	0.25077566504106
scalar RSUExampleScenario.node[100].veinsmobility 	maxSpeed 	13.999900529357
scalar RSUExampleScenario.node[100].veinsmobility 	totalDistance 	3409.9852570792
scalar RSUExampleScenario.node[100].veinsmobility 	totalCO2Emission 	738.23899975532
scalar RSUExampleScenario.node[101].veinsmobility 	startTime 	303.1
scalar RSUExampleScenario.node[101].veinsmobility 	totalTime 	317.7
scalar RSUExampleScenario.node[101].veinsmobility 	stopTime 	620.9
scalar RSUExampleScenario.node[101].veinsmobility 	minSpeed 	0.25632931672409
scalar RSUExampleScenario.node[101].veinsmobility 	maxSpeed 	13.999840139977
scalar RSUExampleScenario.node[101].veinsmobility 	totalDistance 	3414.1318198597
scalar RSUExampleScenario.node[101].veinsmobility 	totalCO2Emission 	739.28292774948
scalar RSUExampleScenario.node[102].veinsmobility 	startTime 	306.1
scalar RSUExampleScenario.node[102].veinsmobility 	totalTime 	318.4
scalar RSUExampleScenario.node[102].veinsmobility 	stopTime 	624.6
scalar RSUExampleScenario.node[102].veinsmobility 	minSpeed 	0.25251204205281
scalar RSUExampleScenario.node[102].veinsmobility 	maxSpeed 	13.99996629088
scalar RSUExampleScenario.node[102].veinsmobility 	totalDistance 	3409.8079274941
scalar RSUExampleScenario.node[102].veinsmobility 	totalCO2Emission 	738.34703457548
scalar RSUExampleScenario.node[103].veinsmobility 	startTime 	309.1
scalar RSUExampleScenario.node[103].veinsmobility 	totalTime 	319.1
scalar RSUExampleScenario.node[103].veinsmobility 	stopTime 	628.3
scalar RSUExampleScenario.node[103].veinsmobility 	minSpeed 	0.25178720573988
scalar RSUExampleScenario.node[103].veinsmobility 	maxSpeed 	13.999833329832
scalar RSUExampleScenario.node[103].veinsmobility 	totalDistance 	3413.9252016933
scalar RSUExampleScenario.node[103].veinsmobility 	totalCO2Emission 	740.99692401706
scalar RSUExampleScenario.node[104].veinsmobility 	startTime 	312.1
scalar RSUExampleScenario.node[104].veinsmobility 	totalTime 	319.7
scalar RSUExampleScenario.node[104].veinsmobility 	stopTime 	631.9
scalar RSUExampleScenario.node[104].veinsmobility 	minSpeed 	0.25262464726064
scalar RSUExampleScenario.node[104].veinsmobility 	maxSpeed 	13.999871428476
scalar RSUExampleScenario.node[104].veinsmobility 	totalDistance 	3409.8660041811
scalar RSUExampleScenario.node[104].veinsmobility 	totalCO2Emission 	741.46481659692
scalar RSUExampleScenario.node[105].veinsmobility 	startTime 	315.1
scalar RSUExampleScenario.node[105].veinsmobility 	totalTime 	320.3
scalar RSUExampleScenario.node[105].veinsmobility 	stopTime 	635.5
scalar RSUExampleScenario.node[105].veinsmobility 	minSpeed 	0.25130515611568
scalar RSUExampleScenario.node[105].veinsmobility 	maxSpeed 	13.999958060561
scalar RSUExampleScenario.node[105].veinsmobility 	totalDistance 	3413.7201434076
scalar RSUExampleScenario.node[105].veinsmobility 	totalCO2Emission 	738.08093964879
scalar RSUExampleScenario.node[106].veinsmobility 	startTime 	318.1
scalar RSUExampleScenario.node[106].veinsmobility 	totalTime 	320.9
scalar RSUExampleScenario.node[106].veinsmobility 	stopTime 	639.1
scalar RSUExampleScenario.node[106].veinsmobility 	minSpeed 	0.24744207913545
scalar RSUExampleScenario.node[106].veinsmobility 	maxSpeed 	13.999663135684
scalar RSUExampleScenario.node[106].veinsmobility 	totalDistance 	3409.4487810951
scalar RSUExampleScenario.node[106].veinsmobility 	totalCO2Emission 	745.44993030758
scalar RSUExampleScenario.node[107].veinsmobility 	startTime 	321.1
scalar RSUExampleScenario.node[107].veinsmobility 	totalTime 	321.7
scalar RSUExampleScenario.node[107].veinsmobility 	stopTime 	642.9
scalar RSUExampleScenario.node[107].veinsmobility 	minSpeed 	0.24860050359415
scalar RSUExampleScenario.node[107].veinsmobility 	maxSpeed 	13.99980193588
scalar RSUExampleScenario.node[107].veinsmobility 	totalDistance 	3414.3157338208
scalar RSUExampleScenario.node[107].veinsmobility 	totalCO2Emission 	743.89721308028
scalar RSUExampleScenario.node[108].veinsmobility 	startTime 	324.1
scalar RSUExampleScenario.node[108].veinsmobility 	totalTime 	322.3
scalar RSUExampleScenario.node[108].veinsmobility 	stopTime 	646.5
scalar RSUExampleScenario.node[108].veinsmobility 	minSpeed 	0.25734464598773
scalar RSUExampleScenario.node[108].veinsmobility 	maxSpeed 	13.999993848396
scalar RSUExampleScenario.node[108].veinsmobility 	totalDistance 	3409.4622781295
scalar RSUExampleScenario.node[108].veinsmobility 	totalCO2Emission 	743.97668844503
scalar RSUExampleScenario.node[109].veinsmobility 	startTime 	327.1
scalar RSUExampleScenario.node[109].veinsmobility 	totalTime 	323
scalar RSUExampleScenario.node[109].veinsmobility 	stopTime 	650.2
scalar RSUExampleScenario.node[109].veinsmobility 	minSpeed 	0.25202440513438
scalar RSUExampleScenario.node[109].veinsmobility 	maxSpeed 	13.999998682465
scalar RSUExampleScenario.node[109].veinsmobility 	totalDistance 	3414.1641017279
scalar RSUExampleScenario.node[109].veinsmobility 	totalCO2Emission 	741.19657939023
scalar RSUExampleScenario.node[110].veinsmobility 	startTime 	330.1
scalar RSUExampleScenario.node[110].veinsmobility 	totalTime 	323.8
scalar RSUExampleScenario.node[110].veinsmobility 	stopTime 	654
scalar RSUExampleScenario.node[110].veinsmobility 	minSpeed 	0.25900182962907
scalar RSUExampleScenario.node[110].veinsmobility 	maxSpeed 	13.999965015417
scalar RSUExampleScenario.node[110].veinsmobility 	totalDistance 	3409.9478174624
scalar RSUExampleScenario.node[110].veinsmobility 	totalCO2Emission 	745.25137086356
scalar RSUExampleScenario.node[111].veinsmobility 	startTime 	333.1
scalar RSUExampleScenario.node[111].veinsmobility 	totalTime 	324.5
scalar RSUExampleScenario.node[111].veinsmobility 	stopTime 	657.7
scalar RSUExampleScenario.node[111].veinsmobility 	minSpeed 	0.25222333282768
scalar RSUExampleScenario.node[111].veinsmobility 	maxSpeed 	13.99975563443
scalar RSUExampleScenario.node[111].veinsmobility 	totalDistance 	3410.0472340276
scalar RSUExampleScenario.node[111].veinsmobility 	totalCO2Emission 	748.79303764883
scalar RSUExampleScenario.node[112].veinsmobility 	startTime 	336.1
scalar RSUExampleScenario.node[112].veinsmobility 	totalTime 	325.2
scalar RSUExampleScenario.node[112].veinsmobility 	stopTime 	661.4
scalar RSUExampleScenario.node[112].veinsmobility 	minSpeed 	0.25667864189367
scalar RSUExampleScenario.node[112].veinsmobility 	maxSpeed 	13.999953590343
scalar RSUExampleScenario.node[112].veinsmobility 	totalDistance 	3414.123152406
scalar RSUExampleScenario.node[112].veinsmobility 	totalCO2Emission 	744.36461889699
scalar RSUExampleScenario.node[113].veinsmobility 	startTime 	339.1
scalar RSUExampleScenario.node[113].veinsmobility 	totalTime 	325.9
scalar RSUExampleScenario.node[113].veinsmobility 	stopTime 	665.1
scalar RSUExampleScenario.node[113].veinsmobility 	minSpeed 	0.25092986684269
scalar RSUExampleScenario.node[113].veinsmobility 	maxSpeed 	13.999894859407
scalar RSUExampleScenario.node[113].veinsmobility 	totalDistance 	3409.9874609946
scalar RSUExampleScenario.node[113].veinsmobility 	totalCO2Emission 	745.25408223234
scalar RSUExampleScenario.node[114].veinsmobility 	startTime 	342.1
scalar RSUExampleScenario.node[114].veinsmobility 	totalTime 	326.6
scalar RSUExampleScenario.node[114].veinsmobility 	stopTime 	668.8
scalar RSUExampleScenario.node[114].veinsmobility 	minSpeed 	0.25908658799529
scalar RSUExampleScenario.node[114].veinsmobility 	maxSpeed 	13.999961386104
scalar RSUExampleScenario.node[114].veinsmobility 	totalDistance 	3413.8856327442
scalar RSUExampleScenario.node[114].veinsmobility 	totalCO2Emission 	752.07146700605
scalar RSUExampleScenario.node[115].veinsmobility 	startTime 	345.1
scalar RSUExampleScenario.node[115].veinsmobility 	totalTime 	327.3
scalar RSUExampleScenario.node[115].veinsmobility 	stopTime 	672.5
scalar RSUExampleScenario.node[115].veinsmobility 	minSpeed 	0.25978685326152
scalar RSUExampleScenario.node[115].veinsmobility 	maxSpeed 	13.999805965396
scalar RSUExampleScenario.node[115].veinsmobility 	totalDistance 	3409.7241652505
scalar RSUExampleScenario.node[115].veinsmobility 	totalCO2Emission 	747.16894103155
scalar RSUExampleScenario.node[116].veinsmobility 	startTime 	348.1
scalar RSUExampleScenario.node[116].veinsmobility 	totalTime 	327.9
scalar RSUExampleScenario.node[116].veinsmobility 	stopTime 	676.1
scalar RSUExampleScenario.node[116].veinsmobility 	minSpeed 	0.24873472840548
scalar RSUExampleScenario.node[116].veinsmobility 	maxSpeed 	13.999869327999
scalar RSUExampleScenario.node[116].veinsmobility 	totalDistance 	3413.826649732
scalar RSUExampleScenario.node[116].veinsmobility 	totalCO2Emission 	750.05702019425
scalar RSUExampleScenario.node[117].veinsmobility 	startTime 	351.1
scalar RSUExampleScenario.node[117].veinsmobility 	totalTime 	328.5
scalar RSUExampleScenario.node[117].veinsmobility 	stopTime 	679.7
scalar RSUExampleScenario.node[117].veinsmobility 	minSpeed 	0.25454800605518
scalar RSUExampleScenario.node[117].veinsmobility 	maxSpeed 	13.999987817409
scalar RSUExampleScenario.node[117].veinsmobility 	totalDistance 	3409.6868858587
scalar RSUExampleScenario.node[117].veinsmobility 	totalCO2Emission 	749.89926615919
scalar RSUExampleScenario.node[118].veinsmobility 	startTime 	354.1
scalar RSUExampleScenario.node[118].veinsmobility 	totalTime 	329.1
scalar RSUExampleScenario.node[118].veinsmobility 	stopTime 	683.3
scalar RSUExampleScenario.node[118].veinsmobility 	minSpeed 	0.25545639974927
scalar RSUExampleScenario.node[118].veinsmobility 	maxSpeed 	13.99997539107
scalar RSUExampleScenario.node[118].veinsmobility 	totalDistance 	3413.7726830332
scalar RSUExampleScenario.node[118].veinsmobility 	totalCO2Emission 	752.67355296534
scalar RSUExampleScenario.node[119].veinsmobility 	startTime 	357.1
scalar RSUExampleScenario.node[119].veinsmobility 	totalTime 	329.7
scalar RSUExampleScenario.node[119].veinsmobility 	stopTime 	686.9
scalar RSUExampleScenario.node[119].veinsmobility 	minSpeed 	0.25201910546166
scalar RSUExampleScenario.node[119].veinsmobility 	maxSpeed 	13.999983758382
scalar RSUExampleScenario.node[119].veinsmobility 	totalDistance 	3409.6194236774
scalar RSUExampleScenario.node[119].veinsmobility 	totalCO2Emission 	753.90798966786
scalar RSUExampleScenario.node[120].veinsmobility 	startTime 	360.1
scalar RSUExampleScenario.node[120].veinsmobility 	totalTime 	330.4
scalar RSUExampleScenario.node[120].veinsmobility 	stopTime 	690.6
scalar RSUExampleScenario.node[120].veinsmobility 	minSpeed 	0.25357002082444
scalar RSUExampleScenario.node[120].veinsmobility 	maxSpeed 	13.999905328043
scalar RSUExampleScenario.node[120].veinsmobility 	totalDistance 	3414.177807317
scalar RSUExampleScenario.node[120].veinsmobility 	totalCO2Emission 	755.69350901091
scalar RSUExampleScenario.node[121].veinsmobility 	startTime 	363.1
scalar RSUExampleScenario.node[121].veinsmobility 	totalTime 	331.1
scalar RSUExampleScenario.node[121].veinsmobility 	stopTime 	694.3
scalar RSUExampleScenario.node[121].veinsmobility 	minSpeed 	0.25369696808956
scalar RSUExampleScenario.node[121].veinsmobility 	maxSpeed 	13.999924871596
scalar RSUExampleScenario.node[121].veinsmobility 	totalDistance 	3409.6857106263
scalar RSUExampleScenario.node[121].veinsmobility 	totalCO2Emission 	751.53939143665
scalar RSUExampleScenario.node[122].veinsmobility 	startTime 	366.1
scalar RSUExampleScenario.node[122].veinsmobility 	totalTime 	331.8
scalar RSUExampleScenario.node[122].veinsmobility 	stopTime 	698
scalar RSUExampleScenario.node[122].veinsmobility 	minSpeed 	0.25527646922623
scalar RSUExampleScenario.node[122].veinsmobility 	maxSpeed 	13.999933246414
scalar RSUExampleScenario.node[122].veinsmobility 	totalDistance 	3413.9269093725
scalar RSUExampleScenario.node[122].veinsmobility 	totalCO2Emission 	752.5005973514
scalar RSUExampleScenario.node[123].veinsmobility 	startTime 	369.1
scalar RSUExampleScenario.node[123].veinsmobility 	totalTime 	332.5
scalar RSUExampleScenario.node[123].veinsmobility 	stopTime 	701.7
scalar RSUExampleScenario.node[123].veinsmobility 	minSpeed 	0.25682278595306
scalar RSUExampleScenario.node[123].veinsmobility 	maxSpeed 	13.999870336771
scalar RSUExampleScenario.node[123].veinsmobility 	totalDistance 	3409.7164612411
scalar RSUExampleScenario.node[123].veinsmobility 	totalCO2Emission 	754.77269962678
scalar RSUExampleScenario.node[124].veinsmobility 	startTime 	372.1
scalar RSUExampleScenario.node[124].veinsmobility 	totalTime 	333.1
scalar RSUExampleScenario.node[124].veinsmobility 	stopTime 	705.3
scalar RSUExampleScenario.node[124].veinsmobility 	minSpeed 	0.24771845143312
scalar RSUExampleScenario.node[124].veinsmobility 	maxSpeed 	13.999946941829
scalar RSUExampleScenario.node[124].veinsmobility 	totalDistance 	3413.7147138534
scalar RSUExampleScenario.node[124].veinsmobility 	totalCO2Emission 	757.23159527188
scalar RSUExampleScenario.node[125].veinsmobility 	startTime 	375.1
scalar RSUExampleScenario.node[125].veinsmobility 	totalTime 	333.7
scalar RSUExampleScenario.node[125].veinsmobility 	stopTime 	708.9
scalar RSUExampleScenario.node[125].veinsmobility 	minSpeed 	0.24788211045112
scalar RSUExampleScenario.node[125].veinsmobility 	maxSpeed 	13.999914277287
scalar RSUExampleScenario.node[125].veinsmobility 	totalDistance 	3409.504952577
scalar RSUExampleScenario.node[125].veinsmobility 	totalCO2Emission 	756.04618059434
scalar RSUExampleScenario.node[126].veinsmobility 	startTime 	378.1
scalar RSUExampleScenario.node[126].veinsmobility 	totalTime 	334.4
scalar RSUExampleScenario.node[126].veinsmobility 	stopTime 	712.6
scalar RSUExampleScenario.node[126].veinsmobility 	minSpeed 	0.25019568558037
scalar RSUExampleScenario.node[126].veinsmobility 	maxSpeed 	13.999843044796
scalar RSUExampleScenario.node[126].veinsmobility 	totalDistance 	3414.221273621
scalar RSUExampleScenario.node[126].veinsmobility 	totalCO2Emission 	760.61686373853
scalar RSUExampleScenario.node[127].veinsmobility 	startTime 	381.1
scalar RSUExampleScenario.node[127].veinsmobility 	totalTime 	335.1
scalar RSUExampleScenario.node[127].veinsmobility 	stopTime 	716.3
scalar RSUExampleScenario.node[127].veinsmobility 	minSpeed 	0.24825742332102
scalar RSUExampleScenario.node[127].veinsmobility 	maxSpeed 	13.999989831562
scalar RSUExampleScenario.node[127].veinsmobility 	totalDistance 	3409.580384274
scalar RSUExampleScenario.node[127].veinsmobility 	totalCO2Emission 	759.99407189937
scalar RSUExampleScenario.node[128].veinsmobility 	startTime 	384.1
scalar RSUExampleScenario.node[128].veinsmobility 	totalTime 	335.8
scalar RSUExampleScenario.node[128].veinsmobility 	stopTime 	720
scalar RSUExampleScenario.node[128].veinsmobility 	minSpeed 	0.2546152958055
scalar RSUExampleScenario.node[128].veinsmobility 	maxSpeed 	13.999946940346
scalar RSUExampleScenario.node[128].veinsmobility 	totalDistance 	3414.1790862753
scalar RSUExampleScenario.node[128].veinsmobility 	totalCO2Emission 	760.87419197134
scalar RSUExampleScenario.node[129].veinsmobility 	startTime 	387.1
scalar RSUExampleScenario.node[129].veinsmobility 	totalTime 	336.5
scalar RSUExampleScenario.node[129].veinsmobility 	stopTime 	723.7
scalar RSUExampleScenario.node[129].veinsmobility 	minSpeed 	0.2566255041752
scalar RSUExampleScenario.node[129].veinsmobility 	maxSpeed 	13.999985435652
scalar RSUExampleScenario.node[129].veinsmobility 	totalDistance 	3409.8142879225
scalar RSUExampleScenario.node[129].veinsmobility 	totalCO2Emission 	754.70464248736
scalar RSUExampleScenario.node[130].veinsmobility 	startTime 	390.1
scalar RSUExampleScenario.node[130].veinsmobility 	totalTime 	337.1
scalar RSUExampleScenario.node[130].veinsmobility 	stopTime 	727.3
scalar RSUExampleScenario.node[130].veinsmobility 	minSpeed 	0.25613774665096
scalar RSUExampleScenario.node[130].veinsmobility 	maxSpeed 	13.999910187053
scalar RSUExampleScenario.node[130].veinsmobility 	totalDistance 	3413.8447143858
scalar RSUExampleScenario.node[130].veinsmobility 	totalCO2Emission 	760.62353006767
scalar RSUExampleScenario.node[131].veinsmobility 	startTime 	393.1
scalar RSUExampleScenario.node[131].veinsmobility 	totalTime 	337.8
scalar RSUExampleScenario.node[131].veinsmobility 	stopTime 	731
scalar RSUExampleScenario.node[131].veinsmobility 	minSpeed 	0.24967693299614
scalar RSUExampleScenario.node[131].veinsmobility 	maxSpeed 	13.999976777132
scalar RSUExampleScenario.node[131].veinsmobility 	totalDistance 	3409.8542092346
scalar RSUExampleScenario.node[131].veinsmobility 	totalCO2Emission 	757.55527630606
scalar RSUExampleScenario.node[132].veinsmobility 	startTime 	396.1
scalar RSUExampleScenario.node[132].veinsmobility 	totalTime 	338.4
scalar RSUExampleScenario.node[132].veinsmobility 	stopTime 	734.6
scalar RSUExampleScenario.node[132].veinsmobility 	minSpeed 	0.25643461102736
scalar RSUExampleScenario.node[132].veinsmobility 	maxSpeed 	13.999969453793
scalar RSUExampleScenario.node[132].veinsmobility 	totalDistance 	3413.7242407929
scalar RSUExampleScenario.node[132].veinsmobility 	totalCO2Emission 	761.03450899098
scalar RSUExampleScenario.node[133].veinsmobility 	startTime 	399.1
scalar RSUExampleScenario.node[133].veinsmobility 	totalTime 	339
scalar RSUExampleScenario.node[133].veinsmobility 	stopTime 	738.2
scalar RSUExampleScenario.node[133].veinsmobility 	minSpeed 	0.25390210621315
scalar RSUExampleScenario.node[133].veinsmobility 	maxSpeed 	13.999869494897
scalar RSUExampleScenario.node[133].veinsmobility 	totalDistance 	3409.558877173
scalar RSUExampleScenario.node[133].veinsmobility 	totalCO2Emission 	762.11305139872
scalar RSUExampleScenario.node[134].veinsmobility 	startTime 	402.1
scalar RSUExampleScenario.node[134].veinsmobility 	totalTime 	339.6
scalar RSUExampleScenario.node[134].veinsmobility 	stopTime 	741.8
scalar RSUExampleScenario.node[134].veinsmobility 	minSpeed 	0.25321225526719
scalar RSUExampleScenario.node[134].veinsmobility 	maxSpeed 	13.999850653228
scalar RSUExampleScenario.node[134].veinsmobility 	totalDistance 	3409.7498334456
scalar RSUExampleScenario.node[134].veinsmobility 	totalCO2Emission 	759.85944067863
scalar RSUExampleScenario.node[135].veinsmobility 	startTime 	405.1
scalar RSUExampleScenario.node[135].veinsmobility 	totalTime 	340.2
scalar RSUExampleScenario.node[135].veinsmobility 	stopTime 	745.4
scalar RSUExampleScenario.node[135].veinsmobility 	minSpeed 	0.2552046542489
scalar RSUExampleScenario.node[135].veinsmobility 	maxSpeed 	13.999759716461
scalar RSUExampleScenario.node[135].veinsmobility 	totalDistance 	3414.1836114728
scalar RSUExampleScenario.node[135].veinsmobility 	totalCO2Emission 	762.36660835792
scalar RSUExampleScenario.node[136].veinsmobility 	startTime 	408.1
scalar RSUExampleScenario.node[136].veinsmobility 	totalTime 	340.9
scalar RSUExampleScenario.node[136].veinsmobility 	stopTime 	749.1
scalar RSUExampleScenario.node[136].veinsmobility 	minSpeed 	0.24835790775414
scalar RSUExampleScenario.node[136].veinsmobility 	maxSpeed 	13.999948987158
scalar RSUExampleScenario.node[136].veinsmobility 	totalDistance 	3409.9923481669
scalar RSUExampleScenario.node[136].veinsmobility 	totalCO2Emission 	763.38428512108
scalar RSUExampleScenario.node[137].veinsmobility 	startTime 	411.1
scalar RSUExampleScenario.node[137].veinsmobility 	totalTime 	341.5
scalar RSUExampleScenario.node[137].veinsmobility 	stopTime 	752.7
scalar RSUExampleScenario.node[137].veinsmobility 	minSpeed 	0.25272740896605
scalar RSUExampleScenario.node[137].veinsmobility 	maxSpeed 	13.999779293672
scalar RSUExampleScenario.node[137].veinsmobility 	totalDistance 	3413.9193562519
scalar RSUExampleScenario.node[137].veinsmobility 	totalCO2Emission 	762.31249007583
scalar RSUExampleScenario.node[138].veinsmobility 	startTime 	414.1
scalar RSUExampleScenario.node[138].veinsmobility 	totalTime 	342.2
scalar RSUExampleScenario.node[138].veinsmobility 	stopTime 	756.4
scalar RSUExampleScenario.node[138].veinsmobility 	minSpeed 	0.24865088822762
scalar RSUExampleScenario.node[138].veinsmobility 	maxSpeed 	13.999991616798
scalar RSUExampleScenario.node[138].veinsmobility 	totalDistance 	3410.0974432962
scalar RSUExampleScenario.node[138].veinsmobility 	totalCO2Emission 	763.79127046238
scalar RSUExampleScenario.node[139].veinsmobility 	startTime 	417.1
scalar RSUExampleScenario.node[139].veinsmobility 	totalTime 	342.8
scalar RSUExampleScenario.node[139].veinsmobility 	stopTime 	760
scalar RSUExampleScenario.node[139].veinsmobility 	minSpeed 	0.25992185650486
scalar RSUExampleScenario.node[139].veinsmobility 	maxSpeed 	13.999995354409
scalar RSUExampleScenario.node[139].veinsmobility 	totalDistance 	3413.8134453638
scalar RSUExampleScenario.node[139].veinsmobility 	totalCO2Emission 	767.34159512705
scalar RSUExampleScenario.node[140].veinsmobility 	startTime 	420.1
scalar RSUExampleScenario.node[140].veinsmobility 	totalTime 	343.5
scalar RSUExampleScenario.node[140].veinsmobility 	stopTime 	763.7
scalar RSUExampleScenario.node[140].veinsmobility 	minSpeed 	0.2514798986488
scalar RSUExampleScenario.node[140].veinsmobility 	maxSpeed 	13.999728583933
scalar RSUExampleScenario.node[140].veinsmobility 	totalDistance 	3410.0938451104
scalar RSUExampleScenario.node[140].veinsmobility 	totalCO2Emission 	763.74220714837
scalar RSUExampleScenario.node[141].veinsmobility 	startTime 	423.1
scalar RSUExampleScenario.node[141].veinsmobility 	totalTime 	344.2
scalar RSUExampleScenario.node[141].veinsmobility 	stopTime 	767.4
scalar RSUExampleScenario.node[141].veinsmobility 	minSpeed 	0.24820342270774
scalar RSUExampleScenario.node[141].veinsmobility 	maxSpeed 	13.999707145635
scalar RSUExampleScenario.node[141].veinsmobility 	totalDistance 	3413.9285395997
scalar RSUExampleScenario.node[141].veinsmobility 	totalCO2Emission 	769.99120105093
scalar RSUExampleScenario.node[142].veinsmobility 	startTime 	426.1
scalar RSUExampleScenario.node[142].veinsmobility 	totalTime 	345
scalar RSUExampleScenario.node[142].veinsmobility 	stopTime 	771.2
scalar RSUExampleScenario.node[142].veinsmobility 	minSpeed 	0.25144895013492
scalar RSUExampleScenario.node[142].veinsmobility 	maxSpeed 	13.999872667829
scalar RSUExampleScenario.node[142].veinsmobility 	totalDistance 	3410.1539946183
scalar RSUExampleScenario.node[142].veinsmobility 	totalCO2Emission 	765.88021129251
scalar RSUExampleScenario.node[143].veinsmobility 	startTime 	429.1
scalar RSUExampleScenario.node[143].veinsmobility 	totalTime 	345.8
scalar RSUExampleScenario.node[143].veinsmobility 	stopTime 	775
scalar RSUExampleScenario.node[143].veinsmobility 	minSpeed 	0.25980391984596
scalar RSUExampleScenario.node[143].veinsmobility 	maxSpeed 	13.999746383142
scalar RSUExampleScenario.node[143].veinsmobility 	totalDistance 	3414.3830320296
scalar RSUExampleScenario.node[143].veinsmobility 	totalCO2Emission 	765.22824631544
scalar RSUExampleScenario.node[144].veinsmobility 	startTime 	432.1
scalar RSUExampleScenario.node[144].veinsmobility 	totalTime 	346.5
scalar RSUExampleScenario.node[144].veinsmobility 	stopTime 	778.7
scalar RSUExampleScenario.node[144].veinsmobility 	minSpeed 	0.24751377813192
scalar RSUExampleScenario.node[144].veinsmobility 	maxSpeed 	13.999955460995
scalar RSUExampleScenario.node[144].veinsmobility 	totalDistance 	3409.8504871653
scalar RSUExampleScenario.node[144].veinsmobility 	totalCO2Emission 	767.62197279944
scalar RSUExampleScenario.node[145].veinsmobility 	startTime 	435.1
scalar RSUExampleScenario.node[145].veinsmobility 	totalTime 	347.2
scalar RSUExampleScenario.node[145].veinsmobility 	stopTime 	782.4
scalar RSUExampleScenario.node[145].veinsmobility 	minSpeed 	0.25836866794084
scalar RSUExampleScenario.node[145].veinsmobility 	maxSpeed 	13.999925883999
scalar RSUExampleScenario.node[145].veinsmobility 	totalDistance 	3413.7693576902
scalar RSUExampleScenario.node[145].veinsmobility 	totalCO2Emission 	768.46847788842
scalar RSUExampleScenario.node[146].veinsmobility 	startTime 	438.1
scalar RSUExampleScenario.node[146].veinsmobility 	totalTime 	347.9
scalar RSUExampleScenario.node[146].veinsmobility 	stopTime 	786.1
scalar RSUExampleScenario.node[146].veinsmobility 	minSpeed 	0.259545201489
scalar RSUExampleScenario.node[146].veinsmobility 	maxSpeed 	13.99993863814
scalar RSUExampleScenario.node[146].veinsmobility 	totalDistance 	3409.7946307664
scalar RSUExampleScenario.node[146].veinsmobility 	totalCO2Emission 	769.93430035173
scalar RSUExampleScenario.node[147].veinsmobility 	startTime 	441.1
scalar RSUExampleScenario.node[147].veinsmobility 	totalTime 	348.6
scalar RSUExampleScenario.node[147].veinsmobility 	stopTime 	789.8
scalar RSUExampleScenario.node[147].veinsmobility 	minSpeed 	0.25115401192219
scalar RSUExampleScenario.node[147].veinsmobility 	maxSpeed 	13.999953290871
scalar RSUExampleScenario.node[147].veinsmobility 	totalDistance 	3413.9661326061
scalar RSUExampleScenario.node[147].veinsmobility 	totalCO2Emission 	769.39804555192
scalar RSUExampleScenario.node[148].veinsmobility 	startTime 	444.1
scalar RSUExampleScenario.node[148].veinsmobility 	totalTime 	349.3
scalar RSUExampleScenario.node[148].veinsmobility 	stopTime 	793.5
scalar RSUExampleScenario.node[148].veinsmobility 	minSpeed 	0.25728398237121
scalar RSUExampleScenario.node[148].veinsmobility 	maxSpeed 	13.99998883181
scalar RSUExampleScenario.node[148].veinsmobility 	totalDistance 	3409.7766143364
scalar RSUExampleScenario.node[148].veinsmobility 	totalCO2Emission 	773.08360716499
scalar RSUExampleScenario.node[149].veinsmobility 	startTime 	447.1
scalar RSUExampleScenario.node[149].veinsmobility 	totalTime 	350
scalar RSUExampleScenario.node[149].veinsmobility 	stopTime 	797.2
scalar RSUExampleScenario.node[149].veinsmobility 	minSpeed 	0.24831507950765
scalar RSUExampleScenario.node[149].veinsmobility 	maxSpeed 	13.999989017746
scalar RSUExampleScenario.node[149].veinsmobility 	totalDistance 	3409.6251474429
scalar RSUExampleScenario.node[149].veinsmobility 	totalCO2Emission 	775.91264893255
scalar RSUExampleScenario.node[150].veinsmobility 	startTime 	450.1
scalar RSUExampleScenario.node[150].veinsmobility 	totalTime 	350.6
scalar RSUExampleScenario.node[150].veinsmobility 	stopTime 	800.8
scalar RSUExampleScenario.node[150].veinsmobility 	minSpeed 	0.25605648440938
scalar RSUExampleScenario.node[150].veinsmobility 	maxSpeed 	13.999956553094
scalar RSUExampleScenario.node[150].veinsmobility 	totalDistance 	3413.6467200413
scalar RSUExampleScenario.node[150].veinsmobility 	totalCO2Emission 	773.42798561313
scalar RSUExampleScenario.node[151].veinsmobility 	startTime 	453.1
scalar RSUExampleScenario.node[151].veinsmobility 	totalTime 	351.3
scalar RSUExampleScenario.node[151].veinsmobility 	stopTime 	804.5
scalar RSUExampleScenario.node[151].veinsmobility 	minSpeed 	0.25692097705975
scalar RSUExampleScenario.node[151].veinsmobility 	maxSpeed 	13.999974306568
scalar RSUExampleScenario.node[151].veinsmobility 	totalDistance 	3409.843569836
scalar RSUExampleScenario.node[151].veinsmobility 	totalCO2Emission 	773.5748350898
scalar RSUExampleScenario.node[152].veinsmobility 	startTime 	456.1
scalar RSUExampleScenario.node[152].veinsmobility 	totalTime 	352
scalar RSUExampleScenario.node[152].veinsmobility 	stopTime 	808.2
scalar RSUExampleScenario.node[152].veinsmobility 	minSpeed 	0.25512010219228
scalar RSUExampleScenario.node[152].veinsmobility 	maxSpeed 	13.999997974527
scalar RSUExampleScenario.node[152].veinsmobility 	totalDistance 	3413.7096016322
scalar RSUExampleScenario.node[152].veinsmobility 	totalCO2Emission 	777.6119569204
[...]
scalar RSUExampleScenario.node[628].veinsmobility 	totalCO2Emission 	326.52691591004
scalar RSUExampleScenario.node[629].veinsmobility 	startTime 	1887.1
scalar RSUExampleScenario.node[629].veinsmobility 	totalTime 	112.8
scalar RSUExampleScenario.node[629].veinsmobility 	stopTime 	2000
scalar RSUExampleScenario.node[629].veinsmobility 	minSpeed 	0.25057832152862
scalar RSUExampleScenario.node[629].veinsmobility 	maxSpeed 	13.999575333046
scalar RSUExampleScenario.node[629].veinsmobility 	totalDistance 	1361.6914324334
scalar RSUExampleScenario.node[629].veinsmobility 	totalCO2Emission 	317.07643966125
scalar RSUExampleScenario.node[630].veinsmobility 	startTime 	1890.1
scalar RSUExampleScenario.node[630].veinsmobility 	totalTime 	109.8
scalar RSUExampleScenario.node[630].veinsmobility 	stopTime 	2000
scalar RSUExampleScenario.node[630].veinsmobility 	minSpeed 	0.25352620729152
scalar RSUExampleScenario.node[630].veinsmobility 	maxSpeed 	13.999987461215
scalar RSUExampleScenario.node[630].veinsmobility 	totalDistance 	1321.4707033254
scalar RSUExampleScenario.node[630].veinsmobility 	totalCO2Emission 	309.33503449642
scalar RSUExampleScenario.node[631].veinsmobility 	startTime 	1893.1
scalar RSUExampleScenario.node[631].veinsmobility 	totalTime 	106.8
scalar RSUExampleScenario.node[631].veinsmobility 	stopTime 	2000
scalar RSUExampleScenario.node[631].veinsmobility 	minSpeed 	0.25592430802016
scalar RSUExampleScenario.node[631].veinsmobility 	maxSpeed 	13.999770465652
scalar RSUExampleScenario.node[631].veinsmobility 	totalDistance 	1278.9093668435
scalar RSUExampleScenario.node[631].veinsmobility 	totalCO2Emission 	302.13000278666
scalar RSUExampleScenario.node[632].veinsmobility 	startTime 	1896.1
scalar RSUExampleScenario.node[632].veinsmobility 	totalTime 	103.8
scalar RSUExampleScenario.node[632].veinsmobility 	stopTime 	2000
scalar RSUExampleScenario.node[632].veinsmobility 	minSpeed 	0.24797137845634
scalar RSUExampleScenario.node[632].veinsmobility 	maxSpeed 	13.999903089846
scalar RSUExampleScenario.node[632].veinsmobility 	totalDistance 	1237.7561493602
scalar RSUExampleScenario.node[632].veinsmobility 	totalCO2Emission 	296.05617362387
scalar RSUExampleScenario.node[633].veinsmobility 	startTime 	1899.1
scalar RSUExampleScenario.node[633].veinsmobility 	totalTime 	100.8
scalar RSUExampleScenario.node[633].veinsmobility 	stopTime 	2000
scalar RSUExampleScenario.node[633].veinsmobility 	minSpeed 	0.2546718505281
scalar RSUExampleScenario.node[633].veinsmobility 	maxSpeed 	13.999754149755
scalar RSUExampleScenario.node[633].veinsmobility 	totalDistance 	1195.994621113
scalar RSUExampleScenario.node[633].veinsmobility 	totalCO2Emission 	289.98745665199
scalar RSUExampleScenario.node[634].veinsmobility 	startTime 	1902.1
scalar RSUExampleScenario.node[634].veinsmobility 	totalTime 	97.8
scalar RSUExampleScenario.node[634].veinsmobility 	stopTime 	2000
scalar RSUExampleScenario.node[634].veinsmobility 	minSpeed 	0.25627614335297
scalar RSUExampleScenario.node[634].veinsmobility 	maxSpeed 	13.999720186747
scalar RSUExampleScenario.node[634].veinsmobility 	totalDistance 	1153.6174548952
scalar RSUExampleScenario.node[634].veinsmobility 	totalCO2Emission 	281.24234354845
scalar RSUExampleScenario.node[635].veinsmobility 	startTime 	1905.1
scalar RSUExampleScenario.node[635].veinsmobility 	totalTime 	94.8
scalar RSUExampleScenario.node[635].veinsmobility 	stopTime 	2000
scalar RSUExampleScenario.node[635].veinsmobility 	minSpeed 	0.25250744787836
scalar RSUExampleScenario.node[635].veinsmobility 	maxSpeed 	13.999746088302
scalar RSUExampleScenario.node[635].veinsmobility 	totalDistance 	1109.7121054645
scalar RSUExampleScenario.node[635].veinsmobility 	totalCO2Emission 	274.09382338858
scalar RSUExampleScenario.node[636].veinsmobility 	startTime 	1908.1
scalar RSUExampleScenario.node[636].veinsmobility 	totalTime 	91.8
scalar RSUExampleScenario.node[636].veinsmobility 	stopTime 	2000
scalar RSUExampleScenario.node[636].veinsmobility 	minSpeed 	0.25519435144495
scalar RSUExampleScenario.node[636].veinsmobility 	maxSpeed 	13.999929621157
scalar RSUExampleScenario.node[636].veinsmobility 	totalDistance 	1068.7290297965
scalar RSUExampleScenario.node[636].veinsmobility 	totalCO2Emission 	268.70383324637
scalar RSUExampleScenario.node[637].veinsmobility 	startTime 	1911.1
scalar RSUExampleScenario.node[637].veinsmobility 	totalTime 	88.8
scalar RSUExampleScenario.node[637].veinsmobility 	stopTime 	2000
scalar RSUExampleScenario.node[637].veinsmobility 	minSpeed 	0.24989448309969
scalar RSUExampleScenario.node[637].veinsmobility 	maxSpeed 	13.999744799098
scalar RSUExampleScenario.node[637].veinsmobility 	totalDistance 	1028.2117810017
scalar RSUExampleScenario.node[637].veinsmobility 	totalCO2Emission 	260.0312809726
scalar RSUExampleScenario.node[638].veinsmobility 	startTime 	1914.1
scalar RSUExampleScenario.node[638].veinsmobility 	totalTime 	85.8
scalar RSUExampleScenario.node[638].veinsmobility 	stopTime 	2000
scalar RSUExampleScenario.node[638].veinsmobility 	minSpeed 	0.25749709179834
scalar RSUExampleScenario.node[638].veinsmobility 	maxSpeed 	13.999513376057
scalar RSUExampleScenario.node[638].veinsmobility 	totalDistance 	985.97304985097
scalar RSUExampleScenario.node[638].veinsmobility 	totalCO2Emission 	251.72444161004
scalar RSUExampleScenario.node[639].veinsmobility 	startTime 	1917.1
scalar RSUExampleScenario.node[639].veinsmobility 	totalTime 	82.8
scalar RSUExampleScenario.node[639].veinsmobility 	stopTime 	2000
scalar RSUExampleScenario.node[639].veinsmobility 	minSpeed 	0.25958632691624
scalar RSUExampleScenario.node[639].veinsmobility 	maxSpeed 	13.999673314958
scalar RSUExampleScenario.node[639].veinsmobility 	totalDistance 	953.39258354661
scalar RSUExampleScenario.node[639].veinsmobility 	totalCO2Emission 	230.79685604755
scalar RSUExampleScenario.node[640].veinsmobility 	startTime 	1920.1
scalar RSUExampleScenario.node[640].veinsmobility 	totalTime 	79.8
scalar RSUExampleScenario.node[640].veinsmobility 	stopTime 	2000
scalar RSUExampleScenario.node[640].veinsmobility 	minSpeed 	0.25969273690647
scalar RSUExampleScenario.node[640].veinsmobility 	maxSpeed 	13.999453442513
scalar RSUExampleScenario.node[640].veinsmobility 	totalDistance 	936.99267033253
scalar RSUExampleScenario.node[640].veinsmobility 	totalCO2Emission 	223.98716019934
scalar RSUExampleScenario.node[641].veinsmobility 	startTime 	1923.1
scalar RSUExampleScenario.node[641].veinsmobility 	totalTime 	76.8
scalar RSUExampleScenario.node[641].veinsmobility 	stopTime 	2000
scalar RSUExampleScenario.node[641].veinsmobility 	minSpeed 	0.25366980337328
scalar RSUExampleScenario.node[641].veinsmobility 	maxSpeed 	13.999727270606
scalar RSUExampleScenario.node[641].veinsmobility 	totalDistance 	912.82888308372
scalar RSUExampleScenario.node[641].veinsmobility 	totalCO2Emission 	218.73614619562
scalar RSUExampleScenario.node[642].veinsmobility 	startTime 	1926.1
scalar RSUExampleScenario.node[642].veinsmobility 	totalTime 	73.8
scalar RSUExampleScenario.node[642].veinsmobility 	stopTime 	2000
scalar RSUExampleScenario.node[642].veinsmobility 	minSpeed 	0.24716511033755
scalar RSUExampleScenario.node[642].veinsmobility 	maxSpeed 	13.999711754874
scalar RSUExampleScenario.node[642].veinsmobility 	totalDistance 	872.6588583844
scalar RSUExampleScenario.node[642].veinsmobility 	totalCO2Emission 	214.24636734778
scalar RSUExampleScenario.node[643].veinsmobility 	startTime 	1929.1
scalar RSUExampleScenario.node[643].veinsmobility 	totalTime 	70.8
scalar RSUExampleScenario.node[643].veinsmobility 	stopTime 	2000
scalar RSUExampleScenario.node[643].veinsmobility 	minSpeed 	0.25539807483694
scalar RSUExampleScenario.node[643].veinsmobility 	maxSpeed 	13.999813091327
scalar RSUExampleScenario.node[643].veinsmobility 	totalDistance 	832.32739822451
scalar RSUExampleScenario.node[643].veinsmobility 	totalCO2Emission 	209.42998647115
scalar RSUExampleScenario.node[644].veinsmobility 	startTime 	1932.1
scalar RSUExampleScenario.node[644].veinsmobility 	totalTime 	67.8
scalar RSUExampleScenario.node[644].veinsmobility 	stopTime 	2000
scalar RSUExampleScenario.node[644].veinsmobility 	minSpeed 	0.25558669672674
scalar RSUExampleScenario.node[644].veinsmobility 	maxSpeed 	13.999407289831
scalar RSUExampleScenario.node[644].veinsmobility 	totalDistance 	791.09347060791
scalar RSUExampleScenario.node[644].veinsmobility 	totalCO2Emission 	201.56431410259
scalar RSUExampleScenario.node[645].veinsmobility 	startTime 	1935.1
scalar RSUExampleScenario.node[645].veinsmobility 	totalTime 	64.8
scalar RSUExampleScenario.node[645].veinsmobility 	stopTime 	2000
scalar RSUExampleScenario.node[645].veinsmobility 	minSpeed 	0.25960276165954
scalar RSUExampleScenario.node[645].veinsmobility 	maxSpeed 	13.999333144531
scalar RSUExampleScenario.node[645].veinsmobility 	totalDistance 	748.33011343047
scalar RSUExampleScenario.node[645].veinsmobility 	totalCO2Emission 	195.81064390722
scalar RSUExampleScenario.node[646].veinsmobility 	startTime 	1938.1
scalar RSUExampleScenario.node[646].veinsmobility 	totalTime 	61.8
scalar RSUExampleScenario.node[646].veinsmobility 	stopTime 	2000
scalar RSUExampleScenario.node[646].veinsmobility 	minSpeed 	0.2582495120028
scalar RSUExampleScenario.node[646].veinsmobility 	maxSpeed 	13.999990350264
scalar RSUExampleScenario.node[646].veinsmobility 	totalDistance 	706.34271754744
scalar RSUExampleScenario.node[646].veinsmobility 	totalCO2Emission 	185.55512248341
scalar RSUExampleScenario.node[647].veinsmobility 	startTime 	1941.1
scalar RSUExampleScenario.node[647].veinsmobility 	totalTime 	58.8
scalar RSUExampleScenario.node[647].veinsmobility 	stopTime 	2000
scalar RSUExampleScenario.node[647].veinsmobility 	minSpeed 	0.25730160777224
scalar RSUExampleScenario.node[647].veinsmobility 	maxSpeed 	13.999570683187
scalar RSUExampleScenario.node[647].veinsmobility 	totalDistance 	664.69027155777
scalar RSUExampleScenario.node[647].veinsmobility 	totalCO2Emission 	178.98300469807
scalar RSUExampleScenario.node[648].veinsmobility 	startTime 	1944.1
scalar RSUExampleScenario.node[648].veinsmobility 	totalTime 	55.8
scalar RSUExampleScenario.node[648].veinsmobility 	stopTime 	2000
scalar RSUExampleScenario.node[648].veinsmobility 	minSpeed 	0.25847567478544
scalar RSUExampleScenario.node[648].veinsmobility 	maxSpeed 	13.998500950262
scalar RSUExampleScenario.node[648].veinsmobility 	totalDistance 	623.21432317792
scalar RSUExampleScenario.node[648].veinsmobility 	totalCO2Emission 	171.27957162975
scalar RSUExampleScenario.node[649].veinsmobility 	startTime 	1947.1
scalar RSUExampleScenario.node[649].veinsmobility 	totalTime 	52.8
scalar RSUExampleScenario.node[649].veinsmobility 	stopTime 	2000
scalar RSUExampleScenario.node[649].veinsmobility 	minSpeed 	0.25602407114604
scalar RSUExampleScenario.node[649].veinsmobility 	maxSpeed 	13.999606898527
scalar RSUExampleScenario.node[649].veinsmobility 	totalDistance 	580.83992350377
scalar RSUExampleScenario.node[649].veinsmobility 	totalCO2Emission 	164.98108621282
scalar RSUExampleScenario.node[650].veinsmobility 	startTime 	1950.1
scalar RSUExampleScenario.node[650].veinsmobility 	totalTime 	49.8
scalar RSUExampleScenario.node[650].veinsmobility 	stopTime 	2000
scalar RSUExampleScenario.node[650].veinsmobility 	minSpeed 	0.25777752956445
scalar RSUExampleScenario.node[650].veinsmobility 	maxSpeed 	13.99979219204
scalar RSUExampleScenario.node[650].veinsmobility 	totalDistance 	537.75746589019
scalar RSUExampleScenario.node[650].veinsmobility 	totalCO2Emission 	157.781354463
scalar RSUExampleScenario.node[651].veinsmobility 	startTime 	1953.1
scalar RSUExampleScenario.node[651].veinsmobility 	totalTime 	46.8
scalar RSUExampleScenario.node[651].veinsmobility 	stopTime 	2000
scalar RSUExampleScenario.node[651].veinsmobility 	minSpeed 	0.25740791360126
scalar RSUExampleScenario.node[651].veinsmobility 	maxSpeed 	13.999140748424
scalar RSUExampleScenario.node[651].veinsmobility 	totalDistance 	497.53276981044
scalar RSUExampleScenario.node[651].veinsmobility 	totalCO2Emission 	150.02586574813
scalar RSUExampleScenario.node[652].veinsmobility 	startTime 	1956.1
scalar RSUExampleScenario.node[652].veinsmobility 	totalTime 	43.8
scalar RSUExampleScenario.node[652].veinsmobility 	stopTime 	2000
scalar RSUExampleScenario.node[652].veinsmobility 	minSpeed 	0.25033544969908
scalar RSUExampleScenario.node[652].veinsmobility 	maxSpeed 	13.999763394445
scalar RSUExampleScenario.node[652].veinsmobility 	totalDistance 	455.36490390924
scalar RSUExampleScenario.node[652].veinsmobility 	totalCO2Emission 	143.47515329539
scalar RSUExampleScenario.node[653].veinsmobility 	startTime 	1959.1
scalar RSUExampleScenario.node[653].veinsmobility 	totalTime 	40.8
scalar RSUExampleScenario.node[653].veinsmobility 	stopTime 	2000
scalar RSUExampleScenario.node[653].veinsmobility 	minSpeed 	0.24786536957743
scalar RSUExampleScenario.node[653].veinsmobility 	maxSpeed 	13.99687686424
scalar RSUExampleScenario.node[653].veinsmobility 	totalDistance 	414.38325759854
scalar RSUExampleScenario.node[653].veinsmobility 	totalCO2Emission 	135.95781763824
scalar RSUExampleScenario.node[654].veinsmobility 	startTime 	1962.1
scalar RSUExampleScenario.node[654].veinsmobility 	totalTime 	37.8
scalar RSUExampleScenario.node[654].veinsmobility 	stopTime 	2000
scalar RSUExampleScenario.node[654].veinsmobility 	minSpeed 	0.25910011295322
scalar RSUExampleScenario.node[654].veinsmobility 	maxSpeed 	13.998879236071
scalar RSUExampleScenario.node[654].veinsmobility 	totalDistance 	370.33148873524
scalar RSUExampleScenario.node[654].veinsmobility 	totalCO2Emission 	129.32905967895
scalar RSUExampleScenario.node[655].veinsmobility 	startTime 	1965.1
scalar RSUExampleScenario.node[655].veinsmobility 	totalTime 	34.8
scalar RSUExampleScenario.node[655].veinsmobility 	stopTime 	2000
scalar RSUExampleScenario.node[655].veinsmobility 	minSpeed 	0.25182679653494
scalar RSUExampleScenario.node[655].veinsmobility 	maxSpeed 	13.999662948537
scalar RSUExampleScenario.node[655].veinsmobility 	totalDistance 	328.97963031717
scalar RSUExampleScenario.node[655].veinsmobility 	totalCO2Emission 	121.69537169602
scalar RSUExampleScenario.node[656].veinsmobility 	startTime 	1968.1
scalar RSUExampleScenario.node[656].veinsmobility 	totalTime 	31.8
scalar RSUExampleScenario.node[656].veinsmobility 	stopTime 	2000
scalar RSUExampleScenario.node[656].veinsmobility 	minSpeed 	0.25827613085718
scalar RSUExampleScenario.node[656].veinsmobility 	maxSpeed 	13.98469890716
scalar RSUExampleScenario.node[656].veinsmobility 	totalDistance 	288.75893011712
scalar RSUExampleScenario.node[656].veinsmobility 	totalCO2Emission 	114.97631487419
scalar RSUExampleScenario.node[657].veinsmobility 	startTime 	1971.1
scalar RSUExampleScenario.node[657].veinsmobility 	totalTime 	28.8
scalar RSUExampleScenario.node[657].veinsmobility 	stopTime 	2000
scalar RSUExampleScenario.node[657].veinsmobility 	minSpeed 	0.25448558695312
scalar RSUExampleScenario.node[657].veinsmobility 	maxSpeed 	13.889223787033
scalar RSUExampleScenario.node[657].veinsmobility 	totalDistance 	249.23686272514
scalar RSUExampleScenario.node[657].veinsmobility 	totalCO2Emission 	99.021933080374
scalar RSUExampleScenario.node[658].veinsmobility 	startTime 	1974.1
scalar RSUExampleScenario.node[658].veinsmobility 	totalTime 	25.8
scalar RSUExampleScenario.node[658].veinsmobility 	stopTime 	2000
scalar RSUExampleScenario.node[658].veinsmobility 	minSpeed 	0.2576867202681
scalar RSUExampleScenario.node[658].veinsmobility 	maxSpeed 	13.870992420607
scalar RSUExampleScenario.node[658].veinsmobility 	totalDistance 	226.08966663828
scalar RSUExampleScenario.node[658].veinsmobility 	totalCO2Emission 	82.849416278712
scalar RSUExampleScenario.node[659].veinsmobility 	startTime 	1977.1
scalar RSUExampleScenario.node[659].veinsmobility 	totalTime 	22.8
scalar RSUExampleScenario.node[659].veinsmobility 	stopTime 	2000
scalar RSUExampleScenario.node[659].veinsmobility 	minSpeed 	0.25391073875106
scalar RSUExampleScenario.node[659].veinsmobility 	maxSpeed 	13.889955544958
scalar RSUExampleScenario.node[659].veinsmobility 	totalDistance 	208.34419850587
scalar RSUExampleScenario.node[659].veinsmobility 	totalCO2Emission 	78.681823600607
scalar RSUExampleScenario.node[660].veinsmobility 	startTime 	1980.1
scalar RSUExampleScenario.node[660].veinsmobility 	totalTime 	19.8
scalar RSUExampleScenario.node[660].veinsmobility 	stopTime 	2000
scalar RSUExampleScenario.node[660].veinsmobility 	minSpeed 	0.25117437539529
scalar RSUExampleScenario.node[660].veinsmobility 	maxSpeed 	13.889391012376
scalar RSUExampleScenario.node[660].veinsmobility 	totalDistance 	174.12783734787
scalar RSUExampleScenario.node[660].veinsmobility 	totalCO2Emission 	75.564714785942
scalar RSUExampleScenario.node[661].veinsmobility 	startTime 	1983.1
scalar RSUExampleScenario.node[661].veinsmobility 	totalTime 	16.8
scalar RSUExampleScenario.node[661].veinsmobility 	stopTime 	2000
scalar RSUExampleScenario.node[661].veinsmobility 	minSpeed 	0.25679826324433
scalar RSUExampleScenario.node[661].veinsmobility 	maxSpeed 	13.889885731097
scalar RSUExampleScenario.node[661].veinsmobility 	totalDistance 	136.7342808431
scalar RSUExampleScenario.node[661].veinsmobility 	totalCO2Emission 	57.671582638097
scalar RSUExampleScenario.node[662].veinsmobility 	startTime 	1986.1
scalar RSUExampleScenario.node[662].veinsmobility 	totalTime 	13.8
scalar RSUExampleScenario.node[662].veinsmobility 	stopTime 	2000
scalar RSUExampleScenario.node[662].veinsmobility 	minSpeed 	0.25017470875382
scalar RSUExampleScenario.node[662].veinsmobility 	maxSpeed 	13.877618614163
scalar RSUExampleScenario.node[662].veinsmobility 	totalDistance 	116.68478286858
scalar RSUExampleScenario.node[662].veinsmobility 	totalCO2Emission 	43.173717641261
scalar RSUExampleScenario.node[663].veinsmobility 	startTime 	1989.1
scalar RSUExampleScenario.node[663].veinsmobility 	totalTime 	10.8
scalar RSUExampleScenario.node[663].veinsmobility 	stopTime 	2000
scalar RSUExampleScenario.node[663].veinsmobility 	minSpeed 	0.24783237931551
scalar RSUExampleScenario.node[663].veinsmobility 	maxSpeed 	13.872795448254
scalar RSUExampleScenario.node[663].veinsmobility 	totalDistance 	97.267991168597
scalar RSUExampleScenario.node[663].veinsmobility 	totalCO2Emission 	39.17764006299
scalar RSUExampleScenario.node[664].veinsmobility 	startTime 	1992.1
scalar RSUExampleScenario.node[664].veinsmobility 	totalTime 	7.8
scalar RSUExampleScenario.node[664].veinsmobility 	stopTime 	2000
scalar RSUExampleScenario.node[664].veinsmobility 	minSpeed 	0.24863887231634
scalar RSUExampleScenario.node[664].veinsmobility 	maxSpeed 	13.873473614415
scalar RSUExampleScenario.node[664].veinsmobility 	totalDistance 	60.512182313243
scalar RSUExampleScenario.node[664].veinsmobility 	totalCO2Emission 	35.609534817472
scalar RSUExampleScenario.node[665].veinsmobility 	startTime 	1995.1
scalar RSUExampleScenario.node[665].veinsmobility 	totalTime 	4.8
scalar RSUExampleScenario.node[665].veinsmobility 	stopTime 	2000
scalar RSUExampleScenario.node[665].veinsmobility 	minSpeed 	0.25127787331492
scalar RSUExampleScenario.node[665].veinsmobility 	maxSpeed 	9.9358084473016
scalar RSUExampleScenario.node[665].veinsmobility 	totalDistance 	24.781776854125
scalar RSUExampleScenario.node[665].veinsmobility 	totalCO2Emission 	18.6636175536
scalar RSUExampleScenario.node[666].veinsmobility 	startTime 	1998.1
scalar RSUExampleScenario.node[666].veinsmobility 	totalTime 	1.8
scalar RSUExampleScenario.node[666].veinsmobility 	stopTime 	2000
scalar RSUExampleScenario.node[666].veinsmobility 	minSpeed 	0.25885983744473
scalar RSUExampleScenario.node[666].veinsmobility 	maxSpeed 	3.9229007325515
scalar RSUExampleScenario.node[666].veinsmobility 	totalDistance 	3.849079648548
scalar RSUExampleScenario.node[666].veinsmobility 	totalCO2Emission 	4.0179910138406
