version 2
run statisticRVV-152-20150327-08:57:06-6864
attr c 9
attr configname statisticRVV
attr datetime 20150327-08:57:06
attr experiment statisticRVV
attr inifile omnetpp.ini
attr iterationvars "$sc=\"erlangen-medium.launchd.xml\", $p=1/10, $c=9"
attr iterationvars2 "$sc=\"erlangen-medium.launchd.xml\", $p=1/10, $c=9, $repetition=2"
attr measurement "$sc=\"erlangen-medium.launchd.xml\", $p=1/10, $c=9"
attr network RSUExampleScenario
attr p 1/10
attr processid 6864
attr repetition 2
attr replication #2
attr resultdir results
attr runnumber 152
attr sc "\"erlangen-medium.launchd.xml\""
attr seedset 152

scalar . 	c 	9
scalar RSUExampleScenario.node[0].veinsmobility 	startTime 	0.1
scalar RSUExampleScenario.node[0].veinsmobility 	totalTime 	264.3
scalar RSUExampleScenario.node[0].veinsmobility 	stopTime 	264.5
scalar RSUExampleScenario.node[0].veinsmobility 	minSpeed 	0.24766653888393
scalar RSUExampleScenario.node[0].veinsmobility 	maxSpeed 	13.999969351215
scalar RSUExampleScenario.node[0].veinsmobility 	totalDistance 	3409.1713236982
scalar RSUExampleScenario.node[0].veinsmobility 	totalCO2Emission 	695.32380870591
scalar RSUExampleScenario.node[1].veinsmobility 	startTime 	3.1
scalar RSUExampleScenario.node[1].veinsmobility 	totalTime 	265.2
scalar RSUExampleScenario.node[1].veinsmobility 	stopTime 	268.4
scalar RSUExampleScenario.node[1].veinsmobility 	minSpeed 	0.25671182988421
scalar RSUExampleScenario.node[1].veinsmobility 	maxSpeed 	13.999980724137
scalar RSUExampleScenario.node[1].veinsmobility 	totalDistance 	3409.5938745914
scalar RSUExampleScenario.node[1].veinsmobility 	totalCO2Emission 	687.54583862819
scalar RSUExampleScenario.node[2].veinsmobility 	startTime 	6.1
scalar RSUExampleScenario.node[2].veinsmobility 	totalTime 	265.9
scalar RSUExampleScenario.node[2].veinsmobility 	stopTime 	272.1
scalar RSUExampleScenario.node[2].veinsmobility 	minSpeed 	0.25686240956769
scalar RSUExampleScenario.node[2].veinsmobility 	maxSpeed 	13.999997625325
scalar RSUExampleScenario.node[2].veinsmobility 	totalDistance 	3409.3719043546
scalar RSUExampleScenario.node[2].veinsmobility 	totalCO2Emission 	692.6760768656
scalar RSUExampleScenario.node[3].veinsmobility 	startTime 	9.1
scalar RSUExampleScenario.node[3].veinsmobility 	totalTime 	266.3
scalar RSUExampleScenario.node[3].veinsmobility 	stopTime 	275.5
scalar RSUExampleScenario.node[3].veinsmobility 	minSpeed 	0.24734619507566
scalar RSUExampleScenario.node[3].veinsmobility 	maxSpeed 	13.999863046666
scalar RSUExampleScenario.node[3].veinsmobility 	totalDistance 	3409.5074546939
scalar RSUExampleScenario.node[3].veinsmobility 	totalCO2Emission 	693.90283733793
scalar RSUExampleScenario.node[4].veinsmobility 	startTime 	12.1
scalar RSUExampleScenario.node[4].veinsmobility 	totalTime 	266.7
scalar RSUExampleScenario.node[4].veinsmobility 	stopTime 	278.9
scalar RSUExampleScenario.node[4].veinsmobility 	minSpeed 	0.25862827696954
scalar RSUExampleScenario.node[4].veinsmobility 	maxSpeed 	13.999995300986
scalar RSUExampleScenario.node[4].veinsmobility 	totalDistance 	3409.6808361808
scalar RSUExampleScenario.node[4].veinsmobility 	totalCO2Emission 	696.10914360209
scalar RSUExampleScenario.node[5].veinsmobility 	startTime 	15.1
scalar RSUExampleScenario.node[5].veinsmobility 	totalTime 	266.8
scalar RSUExampleScenario.node[5].veinsmobility 	stopTime 	282
scalar RSUExampleScenario.node[5].veinsmobility 	minSpeed 	0.24708786358894
scalar RSUExampleScenario.node[5].veinsmobility 	maxSpeed 	13.999939185143
scalar RSUExampleScenario.node[5].veinsmobility 	totalDistance 	3413.8795520929
scalar RSUExampleScenario.node[5].veinsmobility 	totalCO2Emission 	694.94091026694
scalar RSUExampleScenario.node[6].veinsmobility 	startTime 	18.1
scalar RSUExampleScenario.node[6].veinsmobility 	totalTime 	267
scalar RSUExampleScenario.node[6].veinsmobility 	stopTime 	285.2
scalar RSUExampleScenario.node[6].veinsmobility 	minSpeed 	0.24953606103291
scalar RSUExampleScenario.node[6].veinsmobility 	maxSpeed 	13.999915349016
scalar RSUExampleScenario.node[6].veinsmobility 	totalDistance 	3409.3703417628
scalar RSUExampleScenario.node[6].veinsmobility 	totalCO2Emission 	692.24625801876
scalar RSUExampleScenario.node[7].veinsmobility 	startTime 	21.1
scalar RSUExampleScenario.node[7].veinsmobility 	totalTime 	267.1
scalar RSUExampleScenario.node[7].veinsmobility 	stopTime 	288.3
scalar RSUExampleScenario.node[7].veinsmobility 	minSpeed 	0.25085545218759
scalar RSUExampleScenario.node[7].veinsmobility 	maxSpeed 	13.999934672641
scalar RSUExampleScenario.node[7].veinsmobility 	totalDistance 	3413.8968184346
scalar RSUExampleScenario.node[7].veinsmobility 	totalCO2Emission 	696.26323039046
scalar RSUExampleScenario.node[8].veinsmobility 	startTime 	24.1
scalar RSUExampleScenario.node[8].veinsmobility 	totalTime 	267.1
scalar RSUExampleScenario.node[8].veinsmobility 	stopTime 	291.3
scalar RSUExampleScenario.node[8].veinsmobility 	minSpeed 	0.24945099099423
scalar RSUExampleScenario.node[8].veinsmobility 	maxSpeed 	13.999868485581
scalar RSUExampleScenario.node[8].veinsmobility 	totalDistance 	3409.2415527498
scalar RSUExampleScenario.node[8].veinsmobility 	totalCO2Emission 	689.37173974196
scalar RSUExampleScenario.node[9].veinsmobility 	startTime 	27.1
scalar RSUExampleScenario.node[9].veinsmobility 	totalTime 	267.1
scalar RSUExampleScenario.node[9].veinsmobility 	stopTime 	294.3
scalar RSUExampleScenario.node[9].veinsmobility 	minSpeed 	0.25698407582333
scalar RSUExampleScenario.node[9].veinsmobility 	maxSpeed 	13.999903812041
scalar RSUExampleScenario.node[9].veinsmobility 	totalDistance 	3413.7410758152
scalar RSUExampleScenario.node[9].veinsmobility 	totalCO2Emission 	691.97106743175
scalar RSUExampleScenario.node[10].veinsmobility 	startTime 	30.1
scalar RSUExampleScenario.node[10].veinsmobility 	totalTime 	267.2
scalar RSUExampleScenario.node[10].veinsmobility 	stopTime 	297.4
scalar RSUExampleScenario.node[10].veinsmobility 	minSpeed 	0.24801873456314
scalar RSUExampleScenario.node[10].veinsmobility 	maxSpeed 	13.999923407957
scalar RSUExampleScenario.node[10].veinsmobility 	totalDistance 	3409.734990737
scalar RSUExampleScenario.node[10].veinsmobility 	totalCO2Emission 	694.27254346005
scalar RSUExampleScenario.node[11].veinsmobility 	startTime 	33.1
scalar RSUExampleScenario.node[11].veinsmobility 	totalTime 	267.2
scalar RSUExampleScenario.node[11].veinsmobility 	stopTime 	300.4
scalar RSUExampleScenario.node[11].veinsmobility 	minSpeed 	0.25938636333449
scalar RSUExampleScenario.node[11].veinsmobility 	maxSpeed 	13.999957233851
scalar RSUExampleScenario.node[11].veinsmobility 	totalDistance 	3413.6114927288
scalar RSUExampleScenario.node[11].veinsmobility 	totalCO2Emission 	693.1643339937
scalar RSUExampleScenario.node[12].veinsmobility 	startTime 	36.1
scalar RSUExampleScenario.node[12].veinsmobility 	totalTime 	267.2
scalar RSUExampleScenario.node[12].veinsmobility 	stopTime 	303.4
scalar RSUExampleScenario.node[12].veinsmobility 	minSpeed 	0.24752341083903
scalar RSUExampleScenario.node[12].veinsmobility 	maxSpeed 	13.999980785642
scalar RSUExampleScenario.node[12].veinsmobility 	totalDistance 	3409.3951655003
scalar RSUExampleScenario.node[12].veinsmobility 	totalCO2Emission 	691.27575124723
scalar RSUExampleScenario.node[13].veinsmobility 	startTime 	39.1
scalar RSUExampleScenario.node[13].veinsmobility 	totalTime 	267.2
scalar RSUExampleScenario.node[13].veinsmobility 	stopTime 	306.4
scalar RSUExampleScenario.node[13].veinsmobility 	minSpeed 	0.25524466602923
scalar RSUExampleScenario.node[13].veinsmobility 	maxSpeed 	13.999972887877
scalar RSUExampleScenario.node[13].veinsmobility 	totalDistance 	3413.542047879
scalar RSUExampleScenario.node[13].veinsmobility 	totalCO2Emission 	690.81076312546
scalar RSUExampleScenario.node[14].veinsmobility 	startTime 	42.1
scalar RSUExampleScenario.node[14].veinsmobility 	totalTime 	267.2
scalar RSUExampleScenario.node[14].veinsmobility 	stopTime 	309.4
scalar RSUExampleScenario.node[14].veinsmobility 	minSpeed 	0.25204794788687
scalar RSUExampleScenario.node[14].veinsmobility 	maxSpeed 	13.999980547009
scalar RSUExampleScenario.node[14].veinsmobility 	totalDistance 	3409.7048515132
scalar RSUExampleScenario.node[14].veinsmobility 	totalCO2Emission 	691.33536140047
scalar RSUExampleScenario.node[15].veinsmobility 	startTime 	45.1
scalar RSUExampleScenario.node[15].veinsmobility 	totalTime 	267.2
scalar RSUExampleScenario.node[15].veinsmobility 	stopTime 	312.4
scalar RSUExampleScenario.node[15].veinsmobility 	minSpeed 	0.25600847988366
scalar RSUExampleScenario.node[15].veinsmobility 	maxSpeed 	13.99998372548
scalar RSUExampleScenario.node[15].veinsmobility 	totalDistance 	3413.4454113703
scalar RSUExampleScenario.node[15].veinsmobility 	totalCO2Emission 	689.88882235106
scalar RSUExampleScenario.node[16].veinsmobility 	startTime 	48.1
scalar RSUExampleScenario.node[16].veinsmobility 	totalTime 	267.2
scalar RSUExampleScenario.node[16].veinsmobility 	stopTime 	315.4
scalar RSUExampleScenario.node[16].veinsmobility 	minSpeed 	0.25654973507929
scalar RSUExampleScenario.node[16].veinsmobility 	maxSpeed 	13.999887402314
scalar RSUExampleScenario.node[16].veinsmobility 	totalDistance 	3409.8442488603
scalar RSUExampleScenario.node[16].veinsmobility 	totalCO2Emission 	696.46893056962
scalar RSUExampleScenario.node[17].veinsmobility 	startTime 	51.1
scalar RSUExampleScenario.node[17].veinsmobility 	totalTime 	267.2
scalar RSUExampleScenario.node[17].veinsmobility 	stopTime 	318.4
scalar RSUExampleScenario.node[17].veinsmobility 	minSpeed 	0.24891430386389
scalar RSUExampleScenario.node[17].veinsmobility 	maxSpeed 	13.999967520668
scalar RSUExampleScenario.node[17].veinsmobility 	totalDistance 	3413.9688335216
scalar RSUExampleScenario.node[17].veinsmobility 	totalCO2Emission 	690.9307775545
scalar RSUExampleScenario.node[18].veinsmobility 	startTime 	54.1
scalar RSUExampleScenario.node[18].veinsmobility 	totalTime 	267.3
scalar RSUExampleScenario.node[18].veinsmobility 	stopTime 	321.5
scalar RSUExampleScenario.node[18].veinsmobility 	minSpeed 	0.25127347960533
scalar RSUExampleScenario.node[18].veinsmobility 	maxSpeed 	13.999967646583
scalar RSUExampleScenario.node[18].veinsmobility 	totalDistance 	3409.6767814385
scalar RSUExampleScenario.node[18].veinsmobility 	totalCO2Emission 	687.53186397628
scalar RSUExampleScenario.node[19].veinsmobility 	startTime 	57.1
scalar RSUExampleScenario.node[19].veinsmobility 	totalTime 	267.3
scalar RSUExampleScenario.node[19].veinsmobility 	stopTime 	324.5
scalar RSUExampleScenario.node[19].veinsmobility 	minSpeed 	0.25823866014672
scalar RSUExampleScenario.node[19].veinsmobility 	maxSpeed 	13.999951057427
scalar RSUExampleScenario.node[19].veinsmobility 	totalDistance 	3413.5014496177
scalar RSUExampleScenario.node[19].veinsmobility 	totalCO2Emission 	690.38202961837
scalar RSUExampleScenario.node[20].veinsmobility 	startTime 	60.1
scalar RSUExampleScenario.node[20].veinsmobility 	totalTime 	267.3
scalar RSUExampleScenario.node[20].veinsmobility 	stopTime 	327.5
scalar RSUExampleScenario.node[20].veinsmobility 	minSpeed 	0.25384564076597
scalar RSUExampleScenario.node[20].veinsmobility 	maxSpeed 	13.999709350748
scalar RSUExampleScenario.node[20].veinsmobility 	totalDistance 	3409.4596920078
scalar RSUExampleScenario.node[20].veinsmobility 	totalCO2Emission 	693.4304983257
scalar RSUExampleScenario.node[21].veinsmobility 	startTime 	63.1
scalar RSUExampleScenario.node[21].veinsmobility 	totalTime 	267.3
scalar RSUExampleScenario.node[21].veinsmobility 	stopTime 	330.5
scalar RSUExampleScenario.node[21].veinsmobility 	minSpeed 	0.25276062138588
scalar RSUExampleScenario.node[21].veinsmobility 	maxSpeed 	13.999998885049
scalar RSUExampleScenario.node[21].veinsmobility 	totalDistance 	3413.6900650198
scalar RSUExampleScenario.node[21].veinsmobility 	totalCO2Emission 	691.17647925811
scalar RSUExampleScenario.node[22].veinsmobility 	startTime 	66.1
scalar RSUExampleScenario.node[22].veinsmobility 	totalTime 	267.3
scalar RSUExampleScenario.node[22].veinsmobility 	stopTime 	333.5
scalar RSUExampleScenario.node[22].veinsmobility 	minSpeed 	0.25989206822333
scalar RSUExampleScenario.node[22].veinsmobility 	maxSpeed 	13.999946982509
scalar RSUExampleScenario.node[22].veinsmobility 	totalDistance 	3409.5214192313
scalar RSUExampleScenario.node[22].veinsmobility 	totalCO2Emission 	690.0089921614
scalar RSUExampleScenario.node[23].veinsmobility 	startTime 	69.1
scalar RSUExampleScenario.node[23].veinsmobility 	totalTime 	267.4
scalar RSUExampleScenario.node[23].veinsmobility 	stopTime 	336.6
scalar RSUExampleScenario.node[23].veinsmobility 	minSpeed 	0.2556576427375
scalar RSUExampleScenario.node[23].veinsmobility 	maxSpeed 	13.999999062691
scalar RSUExampleScenario.node[23].veinsmobility 	totalDistance 	3414.142656288
scalar RSUExampleScenario.node[23].veinsmobility 	totalCO2Emission 	691.38415717441
scalar RSUExampleScenario.node[24].veinsmobility 	startTime 	72.1
scalar RSUExampleScenario.node[24].veinsmobility 	totalTime 	267.5
scalar RSUExampleScenario.node[24].veinsmobility 	stopTime 	339.7
scalar RSUExampleScenario.node[24].veinsmobility 	minSpeed 	0.25937842988712
scalar RSUExampleScenario.node[24].veinsmobility 	maxSpeed 	13.999933974238
scalar RSUExampleScenario.node[24].veinsmobility 	totalDistance 	3409.9384160628
scalar RSUExampleScenario.node[24].veinsmobility 	totalCO2Emission 	690.52692321472
scalar RSUExampleScenario.node[25].veinsmobility 	startTime 	75.1
scalar RSUExampleScenario.node[25].veinsmobility 	totalTime 	267.6
scalar RSUExampleScenario.node[25].veinsmobility 	stopTime 	342.8
scalar RSUExampleScenario.node[25].veinsmobility 	minSpeed 	0.25387902169977
scalar RSUExampleScenario.node[25].veinsmobility 	maxSpeed 	13.999886092013
scalar RSUExampleScenario.node[25].veinsmobility 	totalDistance 	3413.873401336
scalar RSUExampleScenario.node[25].veinsmobility 	totalCO2Emission 	689.58799147406
scalar RSUExampleScenario.node[26].veinsmobility 	startTime 	78.1
scalar RSUExampleScenario.node[26].veinsmobility 	totalTime 	267.7
scalar RSUExampleScenario.node[26].veinsmobility 	stopTime 	345.9
scalar RSUExampleScenario.node[26].veinsmobility 	minSpeed 	0.25834687874885
scalar RSUExampleScenario.node[26].veinsmobility 	maxSpeed 	13.999979056069
scalar RSUExampleScenario.node[26].veinsmobility 	totalDistance 	3409.4493090519
scalar RSUExampleScenario.node[26].veinsmobility 	totalCO2Emission 	694.45903967672
scalar RSUExampleScenario.node[27].veinsmobility 	startTime 	81.1
scalar RSUExampleScenario.node[27].veinsmobility 	totalTime 	267.8
scalar RSUExampleScenario.node[27].veinsmobility 	stopTime 	349
scalar RSUExampleScenario.node[27].veinsmobility 	minSpeed 	0.2587285015278
scalar RSUExampleScenario.node[27].veinsmobility 	maxSpeed 	13.999975945398
scalar RSUExampleScenario.node[27].veinsmobility 	totalDistance 	3413.4210823289
scalar RSUExampleScenario.node[27].veinsmobility 	totalCO2Emission 	691.35897275161
scalar RSUExampleScenario.node[28].veinsmobility 	startTime 	84.1
scalar RSUExampleScenario.node[28].veinsmobility 	totalTime 	268
scalar RSUExampleScenario.node[28].veinsmobility 	stopTime 	352.2
scalar RSUExampleScenario.node[28].veinsmobility 	minSpeed 	0.25544093536423
scalar RSUExampleScenario.node[28].veinsmobility 	maxSpeed 	13.999943379106
scalar RSUExampleScenario.node[28].veinsmobility 	totalDistance 	3409.7319792669
scalar RSUExampleScenario.node[28].veinsmobility 	totalCO2Emission 	695.29385583345
scalar RSUExampleScenario.node[29].veinsmobility 	startTime 	87.1
scalar RSUExampleScenario.node[29].veinsmobility 	totalTime 	268.2
scalar RSUExampleScenario.node[29].veinsmobility 	stopTime 	355.4
scalar RSUExampleScenario.node[29].veinsmobility 	minSpeed 	0.25255135680689
scalar RSUExampleScenario.node[29].veinsmobility 	maxSpeed 	13.999990103277
scalar RSUExampleScenario.node[29].veinsmobility 	totalDistance 	3413.7777356455
scalar RSUExampleScenario.node[29].veinsmobility 	totalCO2Emission 	692.97980271343
scalar RSUExampleScenario.node[30].veinsmobility 	startTime 	90.1
scalar RSUExampleScenario.node[30].veinsmobility 	totalTime 	268.4
scalar RSUExampleScenario.node[30].veinsmobility 	stopTime 	358.6
scalar RSUExampleScenario.node[30].veinsmobility 	minSpeed 	0.24791450651619
scalar RSUExampleScenario.node[30].veinsmobility 	maxSpeed 	13.999912468533
scalar RSUExampleScenario.node[30].veinsmobility 	totalDistance 	3409.3930367272
scalar RSUExampleScenario.node[30].veinsmobility 	totalCO2Emission 	687.64017717722
scalar RSUExampleScenario.node[31].veinsmobility 	startTime 	93.1
scalar RSUExampleScenario.node[31].veinsmobility 	totalTime 	268.7
scalar RSUExampleScenario.node[31].veinsmobility 	stopTime 	361.9
scalar RSUExampleScenario.node[31].veinsmobility 	minSpeed 	0.25235915193544
scalar RSUExampleScenario.node[31].veinsmobility 	maxSpeed 	13.999937917551
scalar RSUExampleScenario.node[31].veinsmobility 	totalDistance 	3414.222758207
scalar RSUExampleScenario.node[31].veinsmobility 	totalCO2Emission 	688.55297544275
scalar RSUExampleScenario.node[32].veinsmobility 	startTime 	96.1
scalar RSUExampleScenario.node[32].veinsmobility 	totalTime 	269
scalar RSUExampleScenario.node[32].veinsmobility 	stopTime 	365.2
scalar RSUExampleScenario.node[32].veinsmobility 	minSpeed 	0.25133311622613
scalar RSUExampleScenario.node[32].veinsmobility 	maxSpeed 	13.999891001449
scalar RSUExampleScenario.node[32].veinsmobility 	totalDistance 	3409.5342045756
scalar RSUExampleScenario.node[32].veinsmobility 	totalCO2Emission 	691.87062046312
scalar RSUExampleScenario.node[33].veinsmobility 	startTime 	99.1
scalar RSUExampleScenario.node[33].veinsmobility 	totalTime 	269.4
scalar RSUExampleScenario.node[33].veinsmobility 	stopTime 	368.6
scalar RSUExampleScenario.node[33].veinsmobility 	minSpeed 	0.24930147321755
scalar RSUExampleScenario.node[33].veinsmobility 	maxSpeed 	13.999970266882
scalar RSUExampleScenario.node[33].veinsmobility 	totalDistance 	3414.2042536175
scalar RSUExampleScenario.node[33].veinsmobility 	totalCO2Emission 	693.81493955964
scalar RSUExampleScenario.node[34].veinsmobility 	startTime 	102.1
scalar RSUExampleScenario.node[34].veinsmobility 	totalTime 	269.9
scalar RSUExampleScenario.node[34].veinsmobility 	stopTime 	372.1
scalar RSUExampleScenario.node[34].veinsmobility 	minSpeed 	0.25984581681015
scalar RSUExampleScenario.node[34].veinsmobility 	maxSpeed 	13.999987402495
scalar RSUExampleScenario.node[34].veinsmobility 	totalDistance 	3410.0940172304
scalar RSUExampleScenario.node[34].veinsmobility 	totalCO2Emission 	692.9304185615
scalar RSUExampleScenario.node[35].veinsmobility 	startTime 	105.1
scalar RSUExampleScenario.node[35].veinsmobility 	totalTime 	270.4
scalar RSUExampleScenario.node[35].veinsmobility 	stopTime 	375.6
scalar RSUExampleScenario.node[35].veinsmobility 	minSpeed 	0.25047456874955
scalar RSUExampleScenario.node[35].veinsmobility 	maxSpeed 	13.999982468209
scalar RSUExampleScenario.node[35].veinsmobility 	totalDistance 	3413.7698976237
scalar RSUExampleScenario.node[35].veinsmobility 	totalCO2Emission 	688.88022076665
scalar RSUExampleScenario.node[36].veinsmobility 	startTime 	108.1
scalar RSUExampleScenario.node[36].veinsmobility 	totalTime 	271
scalar RSUExampleScenario.node[36].veinsmobility 	stopTime 	379.2
scalar RSUExampleScenario.node[36].veinsmobility 	minSpeed 	0.2539161246724
scalar RSUExampleScenario.node[36].veinsmobility 	maxSpeed 	13.999989494376
scalar RSUExampleScenario.node[36].veinsmobility 	totalDistance 	3410.0394109763
scalar RSUExampleScenario.node[36].veinsmobility 	totalCO2Emission 	694.84409726178
scalar RSUExampleScenario.node[37].veinsmobility 	startTime 	111.1
scalar RSUExampleScenario.node[37].veinsmobility 	totalTime 	271.6
scalar RSUExampleScenario.node[37].veinsmobility 	stopTime 	382.8
scalar RSUExampleScenario.node[37].veinsmobility 	minSpeed 	0.25975703663402
scalar RSUExampleScenario.node[37].veinsmobility 	maxSpeed 	13.99999871921
scalar RSUExampleScenario.node[37].veinsmobility 	totalDistance 	3414.0686057294
scalar RSUExampleScenario.node[37].veinsmobility 	totalCO2Emission 	694.94805200457
scalar RSUExampleScenario.node[38].veinsmobility 	startTime 	114.1
scalar RSUExampleScenario.node[38].veinsmobility 	totalTime 	272.2
scalar RSUExampleScenario.node[38].veinsmobility 	stopTime 	386.4
scalar RSUExampleScenario.node[38].veinsmobility 	minSpeed 	0.25626510980423
scalar RSUExampleScenario.node[38].veinsmobility 	maxSpeed 	13.999991482226
scalar RSUExampleScenario.node[38].veinsmobility 	totalDistance 	3410.0092448353
scalar RSUExampleScenario.node[38].veinsmobility 	totalCO2Emission 	697.88850103072
scalar RSUExampleScenario.node[39].veinsmobility 	startTime 	117.1
scalar RSUExampleScenario.node[39].veinsmobility 	totalTime 	272.8
scalar RSUExampleScenario.node[39].veinsmobility 	stopTime 	390
scalar RSUExampleScenario.node[39].veinsmobility 	minSpeed 	0.24850679335673
scalar RSUExampleScenario.node[39].veinsmobility 	maxSpeed 	13.999905993303
scalar RSUExampleScenario.node[39].veinsmobility 	totalDistance 	3413.6123071246
scalar RSUExampleScenario.node[39].veinsmobility 	totalCO2Emission 	694.46742186751
scalar RSUExampleScenario.node[40].veinsmobility 	startTime 	120.1
scalar RSUExampleScenario.node[40].veinsmobility 	totalTime 	273.5
scalar RSUExampleScenario.node[40].veinsmobility 	stopTime 	393.7
scalar RSUExampleScenario.node[40].veinsmobility 	minSpeed 	0.25777365039545
scalar RSUExampleScenario.node[40].veinsmobility 	maxSpeed 	13.99990141412
scalar RSUExampleScenario.node[40].veinsmobility 	totalDistance 	3409.9457896452
scalar RSUExampleScenario.node[40].veinsmobility 	totalCO2Emission 	698.35194979004
scalar RSUExampleScenario.node[41].veinsmobility 	startTime 	123.1
scalar RSUExampleScenario.node[41].veinsmobility 	totalTime 	274.3
scalar RSUExampleScenario.node[41].veinsmobility 	stopTime 	397.5
scalar RSUExampleScenario.node[41].veinsmobility 	minSpeed 	0.25554081248236
scalar RSUExampleScenario.node[41].veinsmobility 	maxSpeed 	13.999984214308
scalar RSUExampleScenario.node[41].veinsmobility 	totalDistance 	3414.2733738926
scalar RSUExampleScenario.node[41].veinsmobility 	totalCO2Emission 	696.78274616176
scalar RSUExampleScenario.node[42].veinsmobility 	startTime 	126.1
scalar RSUExampleScenario.node[42].veinsmobility 	totalTime 	275
scalar RSUExampleScenario.node[42].veinsmobility 	stopTime 	401.2
scalar RSUExampleScenario.node[42].veinsmobility 	minSpeed 	0.25161370568629
scalar RSUExampleScenario.node[42].veinsmobility 	maxSpeed 	13.999715662561
scalar RSUExampleScenario.node[42].veinsmobility 	totalDistance 	3409.5227736809
scalar RSUExampleScenario.node[42].veinsmobility 	totalCO2Emission 	694.97144620972
scalar RSUExampleScenario.node[43].veinsmobility 	startTime 	129.1
scalar RSUExampleScenario.node[43].veinsmobility 	totalTime 	275.7
scalar RSUExampleScenario.node[43].veinsmobility 	stopTime 	404.9
scalar RSUExampleScenario.node[43].veinsmobility 	minSpeed 	0.24738375926577
scalar RSUExampleScenario.node[43].veinsmobility 	maxSpeed 	13.999765845365
scalar RSUExampleScenario.node[43].veinsmobility 	totalDistance 	3414.0238068448
scalar RSUExampleScenario.node[43].veinsmobility 	totalCO2Emission 	696.67976624202
scalar RSUExampleScenario.node[44].veinsmobility 	startTime 	132.1
scalar RSUExampleScenario.node[44].veinsmobility 	totalTime 	276.4
scalar RSUExampleScenario.node[44].veinsmobility 	stopTime 	408.6
scalar RSUExampleScenario.node[44].veinsmobility 	minSpeed 	0.25615067473031
scalar RSUExampleScenario.node[44].veinsmobility 	maxSpeed 	13.999884267671
scalar RSUExampleScenario.node[44].veinsmobility 	totalDistance 	3409.414281756
scalar RSUExampleScenario.node[44].veinsmobility 	totalCO2Emission 	699.0419045998
scalar RSUExampleScenario.node[45].veinsmobility 	startTime 	135.1
scalar RSUExampleScenario.node[45].veinsmobility 	totalTime 	277.1
scalar RSUExampleScenario.node[45].veinsmobility 	stopTime 	412.3
scalar RSUExampleScenario.node[45].veinsmobility 	minSpeed 	0.2540730364786
scalar RSUExampleScenario.node[45].veinsmobility 	maxSpeed 	13.999924855221
scalar RSUExampleScenario.node[45].veinsmobility 	totalDistance 	3414.0867101928
scalar RSUExampleScenario.node[45].veinsmobility 	totalCO2Emission 	701.01809728939
scalar RSUExampleScenario.node[46].veinsmobility 	startTime 	138.1
scalar RSUExampleScenario.node[46].veinsmobility 	totalTime 	277.8
scalar RSUExampleScenario.node[46].veinsmobility 	stopTime 	416
scalar RSUExampleScenario.node[46].veinsmobility 	minSpeed 	0.25182929759054
scalar RSUExampleScenario.node[46].veinsmobility 	maxSpeed 	13.999937770902
scalar RSUExampleScenario.node[46].veinsmobility 	totalDistance 	3409.8942022874
scalar RSUExampleScenario.node[46].veinsmobility 	totalCO2Emission 	700.17124686292
scalar RSUExampleScenario.node[47].veinsmobility 	startTime 	141.1
scalar RSUExampleScenario.node[47].veinsmobility 	totalTime 	278.4
scalar RSUExampleScenario.node[47].veinsmobility 	stopTime 	419.6
scalar RSUExampleScenario.node[47].veinsmobility 	minSpeed 	0.25460953789065
scalar RSUExampleScenario.node[47].veinsmobility 	maxSpeed 	13.999970253352
scalar RSUExampleScenario.node[47].veinsmobility 	totalDistance 	3409.4470658672
scalar RSUExampleScenario.node[47].veinsmobility 	totalCO2Emission 	702.6702797789
scalar RSUExampleScenario.node[48].veinsmobility 	startTime 	144.1
scalar RSUExampleScenario.node[48].veinsmobility 	totalTime 	279.1
scalar RSUExampleScenario.node[48].veinsmobility 	stopTime 	423.3
scalar RSUExampleScenario.node[48].veinsmobility 	minSpeed 	0.25220908217668
scalar RSUExampleScenario.node[48].veinsmobility 	maxSpeed 	13.999847190087
scalar RSUExampleScenario.node[48].veinsmobility 	totalDistance 	3413.85971524
scalar RSUExampleScenario.node[48].veinsmobility 	totalCO2Emission 	701.25312288191
scalar RSUExampleScenario.node[49].veinsmobility 	startTime 	147.1
scalar RSUExampleScenario.node[49].veinsmobility 	totalTime 	279.8
scalar RSUExampleScenario.node[49].veinsmobility 	stopTime 	427
scalar RSUExampleScenario.node[49].veinsmobility 	minSpeed 	0.25178090824676
scalar RSUExampleScenario.node[49].veinsmobility 	maxSpeed 	13.99999879706
scalar RSUExampleScenario.node[49].veinsmobility 	totalDistance 	3409.6777090278
scalar RSUExampleScenario.node[49].veinsmobility 	totalCO2Emission 	702.04849320067
scalar RSUExampleScenario.node[50].veinsmobility 	startTime 	150.1
scalar RSUExampleScenario.node[50].veinsmobility 	totalTime 	280.4
scalar RSUExampleScenario.node[50].veinsmobility 	stopTime 	430.6
scalar RSUExampleScenario.node[50].veinsmobility 	minSpeed 	0.2522050730309
scalar RSUExampleScenario.node[50].veinsmobility 	maxSpeed 	13.999990801408
scalar RSUExampleScenario.node[50].veinsmobility 	totalDistance 	3414.0343745311
scalar RSUExampleScenario.node[50].veinsmobility 	totalCO2Emission 	706.10653915876
scalar RSUExampleScenario.node[51].veinsmobility 	startTime 	153.1
scalar RSUExampleScenario.node[51].veinsmobility 	totalTime 	281
scalar RSUExampleScenario.node[51].veinsmobility 	stopTime 	434.2
scalar RSUExampleScenario.node[51].veinsmobility 	minSpeed 	0.24753938034526
scalar RSUExampleScenario.node[51].veinsmobility 	maxSpeed 	13.999923294119
scalar RSUExampleScenario.node[51].veinsmobility 	totalDistance 	3409.6229330246
scalar RSUExampleScenario.node[51].veinsmobility 	totalCO2Emission 	704.85899247364
scalar RSUExampleScenario.node[52].veinsmobility 	startTime 	156.1
scalar RSUExampleScenario.node[52].veinsmobility 	totalTime 	281.6
scalar RSUExampleScenario.node[52].veinsmobility 	stopTime 	437.8
scalar RSUExampleScenario.node[52].veinsmobility 	minSpeed 	0.25698629522324
scalar RSUExampleScenario.node[52].veinsmobility 	maxSpeed 	13.999873202876
scalar RSUExampleScenario.node[52].veinsmobility 	totalDistance 	3413.8810297201
scalar RSUExampleScenario.node[52].veinsmobility 	totalCO2Emission 	704.71597475046
scalar RSUExampleScenario.node[53].veinsmobility 	startTime 	159.1
scalar RSUExampleScenario.node[53].veinsmobility 	totalTime 	282.3
scalar RSUExampleScenario.node[53].veinsmobility 	stopTime 	441.5
scalar RSUExampleScenario.node[53].veinsmobility 	minSpeed 	0.24966962166177
scalar RSUExampleScenario.node[53].veinsmobility 	maxSpeed 	13.999862484317
scalar RSUExampleScenario.node[53].veinsmobility 	totalDistance 	3409.9313913363
scalar RSUExampleScenario.node[53].veinsmobility 	totalCO2Emission 	705.05496398139
scalar RSUExampleScenario.node[54].veinsmobility 	startTime 	162.1
scalar RSUExampleScenario.node[54].veinsmobility 	totalTime 	282.9
scalar RSUExampleScenario.node[54].veinsmobility 	stopTime 	445.1
scalar RSUExampleScenario.node[54].veinsmobility 	minSpeed 	0.25391218841798
scalar RSUExampleScenario.node[54].veinsmobility 	maxSpeed 	13.999856238186
scalar RSUExampleScenario.node[54].veinsmobility 	totalDistance 	3413.7166821957
scalar RSUExampleScenario.node[54].veinsmobility 	totalCO2Emission 	699.69807244413
scalar RSUExampleScenario.node[55].veinsmobility 	startTime 	165.1
scalar RSUExampleScenario.node[55].veinsmobility 	totalTime 	283.6
scalar RSUExampleScenario.node[55].veinsmobility 	stopTime 	448.8
scalar RSUExampleScenario.node[55].veinsmobility 	minSpeed 	0.25087826497015
scalar RSUExampleScenario.node[55].veinsmobility 	maxSpeed 	13.999982822102
scalar RSUExampleScenario.node[55].veinsmobility 	totalDistance 	3409.8626714432
scalar RSUExampleScenario.node[55].veinsmobility 	totalCO2Emission 	708.26490091648
scalar RSUExampleScenario.node[56].veinsmobility 	startTime 	168.1
scalar RSUExampleScenario.node[56].veinsmobility 	totalTime 	284.3
scalar RSUExampleScenario.node[56].veinsmobility 	stopTime 	452.5
scalar RSUExampleScenario.node[56].veinsmobility 	minSpeed 	0.24709825061355
scalar RSUExampleScenario.node[56].veinsmobility 	maxSpeed 	13.999884367615
scalar RSUExampleScenario.node[56].veinsmobility 	totalDistance 	3413.5612187121
scalar RSUExampleScenario.node[56].veinsmobility 	totalCO2Emission 	707.34524515396
scalar RSUExampleScenario.node[57].veinsmobility 	startTime 	171.1
scalar RSUExampleScenario.node[57].veinsmobility 	totalTime 	284.9
scalar RSUExampleScenario.node[57].veinsmobility 	stopTime 	456.1
scalar RSUExampleScenario.node[57].veinsmobility 	minSpeed 	0.25975258315122
scalar RSUExampleScenario.node[57].veinsmobility 	maxSpeed 	13.999801774006
scalar RSUExampleScenario.node[57].veinsmobility 	totalDistance 	3409.8205550945
scalar RSUExampleScenario.node[57].veinsmobility 	totalCO2Emission 	702.79372853848
scalar RSUExampleScenario.node[58].veinsmobility 	startTime 	174.1
scalar RSUExampleScenario.node[58].veinsmobility 	totalTime 	285.6
scalar RSUExampleScenario.node[58].veinsmobility 	stopTime 	459.8
scalar RSUExampleScenario.node[58].veinsmobility 	minSpeed 	0.25603821998462
scalar RSUExampleScenario.node[58].veinsmobility 	maxSpeed 	13.999950903333
scalar RSUExampleScenario.node[58].veinsmobility 	totalDistance 	3413.8587881548
scalar RSUExampleScenario.node[58].veinsmobility 	totalCO2Emission 	706.00616967486
scalar RSUExampleScenario.node[59].veinsmobility 	startTime 	177.1
scalar RSUExampleScenario.node[59].veinsmobility 	totalTime 	286.3
scalar RSUExampleScenario.node[59].veinsmobility 	stopTime 	463.5
scalar RSUExampleScenario.node[59].veinsmobility 	minSpeed 	0.25875068123429
scalar RSUExampleScenario.node[59].veinsmobility 	maxSpeed 	13.99997918492
scalar RSUExampleScenario.node[59].veinsmobility 	totalDistance 	3410.0712737099
scalar RSUExampleScenario.node[59].veinsmobility 	totalCO2Emission 	709.27476602776
scalar RSUExampleScenario.node[60].veinsmobility 	startTime 	180.1
scalar RSUExampleScenario.node[60].veinsmobility 	totalTime 	287
scalar RSUExampleScenario.node[60].veinsmobility 	stopTime 	467.2
scalar RSUExampleScenario.node[60].veinsmobility 	minSpeed 	0.24770383512671
scalar RSUExampleScenario.node[60].veinsmobility 	maxSpeed 	13.999978946771
scalar RSUExampleScenario.node[60].veinsmobility 	totalDistance 	3414.2156747582
scalar RSUExampleScenario.node[60].veinsmobility 	totalCO2Emission 	709.31157234336
scalar RSUExampleScenario.node[61].veinsmobility 	startTime 	183.1
scalar RSUExampleScenario.node[61].veinsmobility 	totalTime 	287.6
scalar RSUExampleScenario.node[61].veinsmobility 	stopTime 	470.8
scalar RSUExampleScenario.node[61].veinsmobility 	minSpeed 	0.25496225450002
scalar RSUExampleScenario.node[61].veinsmobility 	maxSpeed 	13.999990413615
scalar RSUExampleScenario.node[61].veinsmobility 	totalDistance 	3409.4025820447
scalar RSUExampleScenario.node[61].veinsmobility 	totalCO2Emission 	708.52637484815
scalar RSUExampleScenario.node[62].veinsmobility 	startTime 	186.1
scalar RSUExampleScenario.node[62].veinsmobility 	totalTime 	288.3
scalar RSUExampleScenario.node[62].veinsmobility 	stopTime 	474.5
scalar RSUExampleScenario.node[62].veinsmobility 	minSpeed 	0.24708190219756
scalar RSUExampleScenario.node[62].veinsmobility 	maxSpeed 	13.999799626675
scalar RSUExampleScenario.node[62].veinsmobility 	totalDistance 	3413.7335177043
scalar RSUExampleScenario.node[62].veinsmobility 	totalCO2Emission 	707.35935156764
scalar RSUExampleScenario.node[63].veinsmobility 	startTime 	189.1
scalar RSUExampleScenario.node[63].veinsmobility 	totalTime 	289
scalar RSUExampleScenario.node[63].veinsmobility 	stopTime 	478.2
scalar RSUExampleScenario.node[63].veinsmobility 	minSpeed 	0.25283142338763
scalar RSUExampleScenario.node[63].veinsmobility 	maxSpeed 	13.999972486766
scalar RSUExampleScenario.node[63].veinsmobility 	totalDistance 	3409.7202741831
scalar RSUExampleScenario.node[63].veinsmobility 	totalCO2Emission 	712.94947072689
scalar RSUExampleScenario.node[64].veinsmobility 	startTime 	192.1
scalar RSUExampleScenario.node[64].veinsmobility 	totalTime 	289.7
scalar RSUExampleScenario.node[64].veinsmobility 	stopTime 	481.9
scalar RSUExampleScenario.node[64].veinsmobility 	minSpeed 	0.25257903865469
scalar RSUExampleScenario.node[64].veinsmobility 	maxSpeed 	13.999880379082
scalar RSUExampleScenario.node[64].veinsmobility 	totalDistance 	3414.2701806759
scalar RSUExampleScenario.node[64].veinsmobility 	totalCO2Emission 	709.72381311583
scalar RSUExampleScenario.node[65].veinsmobility 	startTime 	195.1
scalar RSUExampleScenario.node[65].veinsmobility 	totalTime 	290.5
scalar RSUExampleScenario.node[65].veinsmobility 	stopTime 	485.7
scalar RSUExampleScenario.node[65].veinsmobility 	minSpeed 	0.25631024305453
scalar RSUExampleScenario.node[65].veinsmobility 	maxSpeed 	13.999984191789
scalar RSUExampleScenario.node[65].veinsmobility 	totalDistance 	3410.0682511934
scalar RSUExampleScenario.node[65].veinsmobility 	totalCO2Emission 	713.19317119043
scalar RSUExampleScenario.node[66].veinsmobility 	startTime 	198.1
scalar RSUExampleScenario.node[66].veinsmobility 	totalTime 	291.2
scalar RSUExampleScenario.node[66].veinsmobility 	stopTime 	489.4
scalar RSUExampleScenario.node[66].veinsmobility 	minSpeed 	0.25632787622837
scalar RSUExampleScenario.node[66].veinsmobility 	maxSpeed 	13.999874323397
scalar RSUExampleScenario.node[66].veinsmobility 	totalDistance 	3413.7943058271
scalar RSUExampleScenario.node[66].veinsmobility 	totalCO2Emission 	712.07816286741
scalar RSUExampleScenario.node[67].veinsmobility 	startTime 	201.1
scalar RSUExampleScenario.node[67].veinsmobility 	totalTime 	291.9
scalar RSUExampleScenario.node[67].veinsmobility 	stopTime 	493.1
scalar RSUExampleScenario.node[67].veinsmobility 	minSpeed 	0.25441700416966
scalar RSUExampleScenario.node[67].veinsmobility 	maxSpeed 	13.999954641187
scalar RSUExampleScenario.node[67].veinsmobility 	totalDistance 	3409.5037595437
scalar RSUExampleScenario.node[67].veinsmobility 	totalCO2Emission 	714.37547140381
scalar RSUExampleScenario.node[68].veinsmobility 	startTime 	204.1
scalar RSUExampleScenario.node[68].veinsmobility 	totalTime 	292.7
scalar RSUExampleScenario.node[68].veinsmobility 	stopTime 	496.9
scalar RSUExampleScenario.node[68].veinsmobility 	minSpeed 	0.25244841279741
scalar RSUExampleScenario.node[68].veinsmobility 	maxSpeed 	13.999887349224
scalar RSUExampleScenario.node[68].veinsmobility 	totalDistance 	3414.2776831173
scalar RSUExampleScenario.node[68].veinsmobility 	totalCO2Emission 	711.36743679928
scalar RSUExampleScenario.node[69].veinsmobility 	startTime 	207.1
scalar RSUExampleScenario.node[69].veinsmobility 	totalTime 	293.4
scalar RSUExampleScenario.node[69].veinsmobility 	stopTime 	500.6
scalar RSUExampleScenario.node[69].veinsmobility 	minSpeed 	0.25788621646073
scalar RSUExampleScenario.node[69].veinsmobility 	maxSpeed 	13.999973029047
scalar RSUExampleScenario.node[69].veinsmobility 	totalDistance 	3409.7095876415
scalar RSUExampleScenario.node[69].veinsmobility 	totalCO2Emission 	712.95399457542
scalar RSUExampleScenario.node[70].veinsmobility 	startTime 	210.1
scalar RSUExampleScenario.node[70].veinsmobility 	totalTime 	294.1
scalar RSUExampleScenario.node[70].veinsmobility 	stopTime 	504.3
scalar RSUExampleScenario.node[70].veinsmobility 	minSpeed 	0.25025384094054
scalar RSUExampleScenario.node[70].veinsmobility 	maxSpeed 	13.99997679281
scalar RSUExampleScenario.node[70].veinsmobility 	totalDistance 	3409.5112159923
scalar RSUExampleScenario.node[70].veinsmobility 	totalCO2Emission 	712.3881182135
scalar RSUExampleScenario.node[71].veinsmobility 	startTime 	213.1
scalar RSUExampleScenario.node[71].veinsmobility 	totalTime 	294.8
scalar RSUExampleScenario.node[71].veinsmobility 	stopTime 	508
scalar RSUExampleScenario.node[71].veinsmobility 	minSpeed 	0.25885982112121
scalar RSUExampleScenario.node[71].veinsmobility 	maxSpeed 	13.999847487439
scalar RSUExampleScenario.node[71].veinsmobility 	totalDistance 	3413.7598891243
scalar RSUExampleScenario.node[71].veinsmobility 	totalCO2Emission 	715.62052383488
scalar RSUExampleScenario.node[72].veinsmobility 	startTime 	216.1
scalar RSUExampleScenario.node[72].veinsmobility 	totalTime 	295.5
scalar RSUExampleScenario.node[72].veinsmobility 	stopTime 	511.7
scalar RSUExampleScenario.node[72].veinsmobility 	minSpeed 	0.2545843448732
scalar RSUExampleScenario.node[72].veinsmobility 	maxSpeed 	13.999974062759
scalar RSUExampleScenario.node[72].veinsmobility 	totalDistance 	3409.7650865606
scalar RSUExampleScenario.node[72].veinsmobility 	totalCO2Emission 	714.1766379101
scalar RSUExampleScenario.node[73].veinsmobility 	startTime 	219.1
scalar RSUExampleScenario.node[73].veinsmobility 	totalTime 	296.2
scalar RSUExampleScenario.node[73].veinsmobility 	stopTime 	515.4
scalar RSUExampleScenario.node[73].veinsmobility 	minSpeed 	0.25865840754868
scalar RSUExampleScenario.node[73].veinsmobility 	maxSpeed 	13.999877325587
scalar RSUExampleScenario.node[73].veinsmobility 	totalDistance 	3413.6240033313
scalar RSUExampleScenario.node[73].veinsmobility 	totalCO2Emission 	721.17741698938
scalar RSUExampleScenario.node[74].veinsmobility 	startTime 	222.1
scalar RSUExampleScenario.node[74].veinsmobility 	totalTime 	296.9
scalar RSUExampleScenario.node[74].veinsmobility 	stopTime 	519.1
scalar RSUExampleScenario.node[74].veinsmobility 	minSpeed 	0.24988861508807
scalar RSUExampleScenario.node[74].veinsmobility 	maxSpeed 	13.999955795729
scalar RSUExampleScenario.node[74].veinsmobility 	totalDistance 	3409.6666149642
scalar RSUExampleScenario.node[74].veinsmobility 	totalCO2Emission 	719.22469317483
scalar RSUExampleScenario.node[75].veinsmobility 	startTime 	225.1
scalar RSUExampleScenario.node[75].veinsmobility 	totalTime 	297.6
scalar RSUExampleScenario.node[75].veinsmobility 	stopTime 	522.8
scalar RSUExampleScenario.node[75].veinsmobility 	minSpeed 	0.24853407671442
scalar RSUExampleScenario.node[75].veinsmobility 	maxSpeed 	13.999866045224
scalar RSUExampleScenario.node[75].veinsmobility 	totalDistance 	3413.6124649813
scalar RSUExampleScenario.node[75].veinsmobility 	totalCO2Emission 	720.5006341174
scalar RSUExampleScenario.node[76].veinsmobility 	startTime 	228.1
scalar RSUExampleScenario.node[76].veinsmobility 	totalTime 	298.3
scalar RSUExampleScenario.node[76].veinsmobility 	stopTime 	526.5
scalar RSUExampleScenario.node[76].veinsmobility 	minSpeed 	0.2534200076214
scalar RSUExampleScenario.node[76].veinsmobility 	maxSpeed 	13.999871534687
scalar RSUExampleScenario.node[76].veinsmobility 	totalDistance 	3409.9158879452
scalar RSUExampleScenario.node[76].veinsmobility 	totalCO2Emission 	718.13661000184
scalar RSUExampleScenario.node[77].veinsmobility 	startTime 	231.1
scalar RSUExampleScenario.node[77].veinsmobility 	totalTime 	298.9
scalar RSUExampleScenario.node[77].veinsmobility 	stopTime 	530.1
scalar RSUExampleScenario.node[77].veinsmobility 	minSpeed 	0.2554404311541
scalar RSUExampleScenario.node[77].veinsmobility 	maxSpeed 	13.999873483793
scalar RSUExampleScenario.node[77].veinsmobility 	totalDistance 	3413.8533491662
scalar RSUExampleScenario.node[77].veinsmobility 	totalCO2Emission 	722.68100427488
scalar RSUExampleScenario.node[78].veinsmobility 	startTime 	234.1
scalar RSUExampleScenario.node[78].veinsmobility 	totalTime 	299.6
scalar RSUExampleScenario.node[78].veinsmobility 	stopTime 	533.8
scalar RSUExampleScenario.node[78].veinsmobility 	minSpeed 	0.2492890641978
scalar RSUExampleScenario.node[78].veinsmobility 	maxSpeed 	13.999947698195
scalar RSUExampleScenario.node[78].veinsmobility 	totalDistance 	3409.7863501322
scalar RSUExampleScenario.node[78].veinsmobility 	totalCO2Emission 	724.19234268797
scalar RSUExampleScenario.node[79].veinsmobility 	startTime 	237.1
scalar RSUExampleScenario.node[79].veinsmobility 	totalTime 	300.3
scalar RSUExampleScenario.node[79].veinsmobility 	stopTime 	537.5
scalar RSUExampleScenario.node[79].veinsmobility 	minSpeed 	0.25588709385507
scalar RSUExampleScenario.node[79].veinsmobility 	maxSpeed 	13.999998539509
scalar RSUExampleScenario.node[79].veinsmobility 	totalDistance 	3414.0426942087
scalar RSUExampleScenario.node[79].veinsmobility 	totalCO2Emission 	719.42451999841
scalar RSUExampleScenario.node[80].veinsmobility 	startTime 	240.1
scalar RSUExampleScenario.node[80].veinsmobility 	totalTime 	301
scalar RSUExampleScenario.node[80].veinsmobility 	stopTime 	541.2
scalar RSUExampleScenario.node[80].veinsmobility 	minSpeed 	0.24793258865201
scalar RSUExampleScenario.node[80].veinsmobility 	maxSpeed 	13.999970103102
scalar RSUExampleScenario.node[80].veinsmobility 	totalDistance 	3409.7594123632
scalar RSUExampleScenario.node[80].veinsmobility 	totalCO2Emission 	724.01628980903
scalar RSUExampleScenario.node[81].veinsmobility 	startTime 	243.1
scalar RSUExampleScenario.node[81].veinsmobility 	totalTime 	301.7
scalar RSUExampleScenario.node[81].veinsmobility 	stopTime 	544.9
scalar RSUExampleScenario.node[81].veinsmobility 	minSpeed 	0.25843140048604
scalar RSUExampleScenario.node[81].veinsmobility 	maxSpeed 	13.999970967434
scalar RSUExampleScenario.node[81].veinsmobility 	totalDistance 	3413.7207034201
scalar RSUExampleScenario.node[81].veinsmobility 	totalCO2Emission 	721.94760437719
scalar RSUExampleScenario.node[82].veinsmobility 	startTime 	246.1
scalar RSUExampleScenario.node[82].veinsmobility 	totalTime 	302.4
scalar RSUExampleScenario.node[82].veinsmobility 	stopTime 	548.6
scalar RSUExampleScenario.node[82].veinsmobility 	minSpeed 	0.254074309438
scalar RSUExampleScenario.node[82].veinsmobility 	maxSpeed 	13.999856633395
scalar RSUExampleScenario.node[82].veinsmobility 	totalDistance 	3409.877787789
scalar RSUExampleScenario.node[82].veinsmobility 	totalCO2Emission 	726.47474718215
scalar RSUExampleScenario.node[83].veinsmobility 	startTime 	249.1
scalar RSUExampleScenario.node[83].veinsmobility 	totalTime 	303.1
scalar RSUExampleScenario.node[83].veinsmobility 	stopTime 	552.3
scalar RSUExampleScenario.node[83].veinsmobility 	minSpeed 	0.25181850557122
scalar RSUExampleScenario.node[83].veinsmobility 	maxSpeed 	13.999913462836
scalar RSUExampleScenario.node[83].veinsmobility 	totalDistance 	3414.1721384117
scalar RSUExampleScenario.node[83].veinsmobility 	totalCO2Emission 	723.192807773
scalar RSUExampleScenario.node[84].veinsmobility 	startTime 	252.1
scalar RSUExampleScenario.node[84].veinsmobility 	totalTime 	303.7
scalar RSUExampleScenario.node[84].veinsmobility 	stopTime 	555.9
scalar RSUExampleScenario.node[84].veinsmobility 	minSpeed 	0.25478716692701
scalar RSUExampleScenario.node[84].veinsmobility 	maxSpeed 	13.999871452691
scalar RSUExampleScenario.node[84].veinsmobility 	totalDistance 	3409.6559066518
scalar RSUExampleScenario.node[84].veinsmobility 	totalCO2Emission 	727.7944025063
scalar RSUExampleScenario.node[85].veinsmobility 	startTime 	255.1
scalar RSUExampleScenario.node[85].veinsmobility 	totalTime 	304.4
scalar RSUExampleScenario.node[85].veinsmobility 	stopTime 	559.6
scalar RSUExampleScenario.node[85].veinsmobility 	minSpeed 	0.25275457787141
scalar RSUExampleScenario.node[85].veinsmobility 	maxSpeed 	13.999856284102
scalar RSUExampleScenario.node[85].veinsmobility 	totalDistance 	3414.3489919845
scalar RSUExampleScenario.node[85].veinsmobility 	totalCO2Emission 	727.54502465438
scalar RSUExampleScenario.node[86].veinsmobility 	startTime 	258.1
scalar RSUExampleScenario.node[86].veinsmobility 	totalTime 	305.1
scalar RSUExampleScenario.node[86].veinsmobility 	stopTime 	563.3
scalar RSUExampleScenario.node[86].veinsmobility 	minSpeed 	0.250746583411
scalar RSUExampleScenario.node[86].veinsmobility 	maxSpeed 	13.999998918707
scalar RSUExampleScenario.node[86].veinsmobility 	totalDistance 	3409.9339474958
scalar RSUExampleScenario.node[86].veinsmobility 	totalCO2Emission 	728.35947724149
scalar RSUExampleScenario.node[87].veinsmobility 	startTime 	261.1
scalar RSUExampleScenario.node[87].veinsmobility 	totalTime 	305.8
scalar RSUExampleScenario.node[87].veinsmobility 	stopTime 	567
scalar RSUExampleScenario.node[87].veinsmobility 	minSpeed 	0.24934775274969
scalar RSUExampleScenario.node[87].veinsmobility 	maxSpeed 	13.999991824739
scalar RSUExampleScenario.node[87].veinsmobility 	totalDistance 	3414.2607428316
scalar RSUExampleScenario.node[87].veinsmobility 	totalCO2Emission 	726.19725988206
scalar RSUExampleScenario.node[88].veinsmobility 	startTime 	264.1
scalar RSUExampleScenario.node[88].veinsmobility 	totalTime 	306.5
scalar RSUExampleScenario.node[88].veinsmobility 	stopTime 	570.7
scalar RSUExampleScenario.node[88].veinsmobility 	minSpeed 	0.248147403226
scalar RSUExampleScenario.node[88].veinsmobility 	maxSpeed 	13.999885081698
scalar RSUExampleScenario.node[88].veinsmobility 	totalDistance 	3410.0323264867
scalar RSUExampleScenario.node[88].veinsmobility 	totalCO2Emission 	730.17656774051
scalar RSUExampleScenario.node[89].veinsmobility 	startTime 	267.1
scalar RSUExampleScenario.node[89].veinsmobility 	totalTime 	307.2
scalar RSUExampleScenario.node[89].veinsmobility 	stopTime 	574.4
scalar RSUExampleScenario.node[89].veinsmobility 	minSpeed 	0.25847784737288
scalar RSUExampleScenario.node[89].veinsmobility 	maxSpeed 	13.999870512052
scalar RSUExampleScenario.node[89].veinsmobility 	totalDistance 	3413.9545205365
scalar RSUExampleScenario.node[89].veinsmobility 	totalCO2Emission 	725.6718572906
scalar RSUExampleScenario.node[90].veinsmobility 	startTime 	270.1
scalar RSUExampleScenario.node[90].veinsmobility 	totalTime 	307.9
scalar RSUExampleScenario.node[90].veinsmobility 	stopTime 	578.1
scalar RSUExampleScenario.node[90].veinsmobility 	minSpeed 	0.25817979426379
scalar RSUExampleScenario.node[90].veinsmobility 	maxSpeed 	13.999979056523
scalar RSUExampleScenario.node[90].veinsmobility 	totalDistance 	3409.5643217609
scalar RSUExampleScenario.node[90].veinsmobility 	totalCO2Emission 	728.95466334877
scalar RSUExampleScenario.node[91].veinsmobility 	startTime 	273.1
scalar RSUExampleScenario.node[91].veinsmobility 	totalTime 	308.6
scalar RSUExampleScenario.node[91].veinsmobility 	stopTime 	581.8
scalar RSUExampleScenario.node[91].veinsmobility 	minSpeed 	0.25803550413717
scalar RSUExampleScenario.node[91].veinsmobility 	maxSpeed 	13.999951490925
scalar RSUExampleScenario.node[91].veinsmobility 	totalDistance 	3413.7665679768
scalar RSUExampleScenario.node[91].veinsmobility 	totalCO2Emission 	732.723270236
scalar RSUExampleScenario.node[92].veinsmobility 	startTime 	276.1
scalar RSUExampleScenario.node[92].veinsmobility 	totalTime 	309.3
scalar RSUExampleScenario.node[92].veinsmobility 	stopTime 	585.5
scalar RSUExampleScenario.node[92].veinsmobility 	minSpeed 	0.25163431474473
scalar RSUExampleScenario.node[92].veinsmobility 	maxSpeed 	13.999964926036
scalar RSUExampleScenario.node[92].veinsmobility 	totalDistance 	3409.9664958297
scalar RSUExampleScenario.node[92].veinsmobility 	totalCO2Emission 	731.0771459374
scalar RSUExampleScenario.node[93].veinsmobility 	startTime 	279.1
scalar RSUExampleScenario.node[93].veinsmobility 	totalTime 	310
scalar RSUExampleScenario.node[93].veinsmobility 	stopTime 	589.2
scalar RSUExampleScenario.node[93].veinsmobility 	minSpeed 	0.25988838881697
scalar RSUExampleScenario.node[93].veinsmobility 	maxSpeed 	13.999993494987
scalar RSUExampleScenario.node[93].veinsmobility 	totalDistance 	3414.2883704993
scalar RSUExampleScenario.node[93].veinsmobility 	totalCO2Emission 	732.57487227737
scalar RSUExampleScenario.node[94].veinsmobility 	startTime 	282.1
scalar RSUExampleScenario.node[94].veinsmobility 	totalTime 	310.7
scalar RSUExampleScenario.node[94].veinsmobility 	stopTime 	592.9
scalar RSUExampleScenario.node[94].veinsmobility 	minSpeed 	0.25223898872733
scalar RSUExampleScenario.node[94].veinsmobility 	maxSpeed 	13.999933049672
scalar RSUExampleScenario.node[94].veinsmobility 	totalDistance 	3409.5556172612
scalar RSUExampleScenario.node[94].veinsmobility 	totalCO2Emission 	731.50674797844
scalar RSUExampleScenario.node[95].veinsmobility 	startTime 	285.1
scalar RSUExampleScenario.node[95].veinsmobility 	totalTime 	311.4
scalar RSUExampleScenario.node[95].veinsmobility 	stopTime 	596.6
scalar RSUExampleScenario.node[95].veinsmobility 	minSpeed 	0.2531141186126
scalar RSUExampleScenario.node[95].veinsmobility 	maxSpeed 	13.999949048995
scalar RSUExampleScenario.node[95].veinsmobility 	totalDistance 	3413.9217913934
scalar RSUExampleScenario.node[95].veinsmobility 	totalCO2Emission 	732.26928369972
scalar RSUExampleScenario.node[96].veinsmobility 	startTime 	288.1
scalar RSUExampleScenario.node[96].veinsmobility 	totalTime 	312.1
scalar RSUExampleScenario.node[96].veinsmobility 	stopTime 	600.3
scalar RSUExampleScenario.node[96].veinsmobility 	minSpeed 	0.24714030614868
scalar RSUExampleScenario.node[96].veinsmobility 	maxSpeed 	13.999907088913
scalar RSUExampleScenario.node[96].veinsmobility 	totalDistance 	3409.83420136
scalar RSUExampleScenario.node[96].veinsmobility 	totalCO2Emission 	731.32629493619
scalar RSUExampleScenario.node[97].veinsmobility 	startTime 	291.1
scalar RSUExampleScenario.node[97].veinsmobility 	totalTime 	312.8
scalar RSUExampleScenario.node[97].veinsmobility 	stopTime 	604
scalar RSUExampleScenario.node[97].veinsmobility 	minSpeed 	0.25110929466598
scalar RSUExampleScenario.node[97].veinsmobility 	maxSpeed 	13.999980728587
scalar RSUExampleScenario.node[97].veinsmobility 	totalDistance 	3414.0995380942
scalar RSUExampleScenario.node[97].veinsmobility 	totalCO2Emission 	734.06988491844
scalar RSUExampleScenario.node[98].veinsmobility 	startTime 	294.1
scalar RSUExampleScenario.node[98].veinsmobility 	totalTime 	313.5
scalar RSUExampleScenario.node[98].veinsmobility 	stopTime 	607.7
scalar RSUExampleScenario.node[98].veinsmobility 	minSpeed 	0.24907503562584
scalar RSUExampleScenario.node[98].veinsmobility 	maxSpeed 	13.999919672918
scalar RSUExampleScenario.node[98].veinsmobility 	totalDistance 	3409.4343402678
scalar RSUExampleScenario.node[98].veinsmobility 	totalCO2Emission 	735.6375388935
scalar RSUExampleScenario.node[99].veinsmobility 	startTime 	297.1
scalar RSUExampleScenario.node[99].veinsmobility 	totalTime 	314.1
scalar RSUExampleScenario.node[99].veinsmobility 	stopTime 	611.3
scalar RSUExampleScenario.node[99].veinsmobility 	minSpeed 	0.2473637328872
scalar RSUExampleScenario.node[99].veinsmobility 	maxSpeed 	13.999892144368
scalar RSUExampleScenario.node[99].veinsmobility 	totalDistance 	3413.6149007614
scalar RSUExampleScenario.node[99].veinsmobility 	totalCO2Emission 	735.71170828246
scalar RSUExampleScenario.node[100].veinsmobility 	startTime 	300.1
scalar RSUExampleScenario.node[100].veinsmobility 	totalTime 	314.8
scalar RSUExampleScenario.node[100].veinsmobility 	stopTime 	615
scalar RSUExampleScenario.node[100].veinsmobility 	minSpeed 	0.2587987350726
scalar RSUExampleScenario.node[100].veinsmobility 	maxSpeed 	13.999878073146
scalar RSUExampleScenario.node[100].veinsmobility 	totalDistance 	3409.6380121617
scalar RSUExampleScenario.node[100].veinsmobility 	totalCO2Emission 	731.58725575517
scalar RSUExampleScenario.node[101].veinsmobility 	startTime 	303.1
scalar RSUExampleScenario.node[101].veinsmobility 	totalTime 	315.5
scalar RSUExampleScenario.node[101].veinsmobility 	stopTime 	618.7
scalar RSUExampleScenario.node[101].veinsmobility 	minSpeed 	0.25868221244309
scalar RSUExampleScenario.node[101].veinsmobility 	maxSpeed 	13.999986190384
scalar RSUExampleScenario.node[101].veinsmobility 	totalDistance 	3414.0653681522
scalar RSUExampleScenario.node[101].veinsmobility 	totalCO2Emission 	735.83088416119
scalar RSUExampleScenario.node[102].veinsmobility 	startTime 	306.1
scalar RSUExampleScenario.node[102].veinsmobility 	totalTime 	316.2
scalar RSUExampleScenario.node[102].veinsmobility 	stopTime 	622.4
scalar RSUExampleScenario.node[102].veinsmobility 	minSpeed 	0.2562939839079
scalar RSUExampleScenario.node[102].veinsmobility 	maxSpeed 	13.999996842172
scalar RSUExampleScenario.node[102].veinsmobility 	totalDistance 	3410.0184820343
scalar RSUExampleScenario.node[102].veinsmobility 	totalCO2Emission 	736.17586174215
scalar RSUExampleScenario.node[103].veinsmobility 	startTime 	309.1
scalar RSUExampleScenario.node[103].veinsmobility 	totalTime 	316.8
scalar RSUExampleScenario.node[103].veinsmobility 	stopTime 	626
scalar RSUExampleScenario.node[103].veinsmobility 	minSpeed 	0.251758404013
scalar RSUExampleScenario.node[103].veinsmobility 	maxSpeed 	13.999970511175
scalar RSUExampleScenario.node[103].veinsmobility 	totalDistance 	3413.7110562066
scalar RSUExampleScenario.node[103].veinsmobility 	totalCO2Emission 	737.34650642383
scalar RSUExampleScenario.node[104].veinsmobility 	startTime 	312.1
scalar RSUExampleScenario.node[104].veinsmobility 	totalTime 	317.5
scalar RSUExampleScenario.node[104].veinsmobility 	stopTime 	629.7
scalar RSUExampleScenario.node[104].veinsmobility 	minSpeed 	0.25836852912582
scalar RSUExampleScenario.node[104].veinsmobility 	maxSpeed 	13.999949564247
scalar RSUExampleScenario.node[104].veinsmobility 	totalDistance 	3409.5776327367
scalar RSUExampleScenario.node[104].veinsmobility 	totalCO2Emission 	743.21903761702
scalar RSUExampleScenario.node[105].veinsmobility 	startTime 	315.1
scalar RSUExampleScenario.node[105].veinsmobility 	totalTime 	318.3
scalar RSUExampleScenario.node[105].veinsmobility 	stopTime 	633.5
scalar RSUExampleScenario.node[105].veinsmobility 	minSpeed 	0.2491277599684
scalar RSUExampleScenario.node[105].veinsmobility 	maxSpeed 	13.999910176944
scalar RSUExampleScenario.node[105].veinsmobility 	totalDistance 	3409.9361171241
scalar RSUExampleScenario.node[105].veinsmobility 	totalCO2Emission 	740.64142376481
scalar RSUExampleScenario.node[106].veinsmobility 	startTime 	318.1
scalar RSUExampleScenario.node[106].veinsmobility 	totalTime 	319.1
scalar RSUExampleScenario.node[106].veinsmobility 	stopTime 	637.3
scalar RSUExampleScenario.node[106].veinsmobility 	minSpeed 	0.2519207003694
scalar RSUExampleScenario.node[106].veinsmobility 	maxSpeed 	13.999886023183
scalar RSUExampleScenario.node[106].veinsmobility 	totalDistance 	3413.8631041
scalar RSUExampleScenario.node[106].veinsmobility 	totalCO2Emission 	738.97746850109
scalar RSUExampleScenario.node[107].veinsmobility 	startTime 	321.1
scalar RSUExampleScenario.node[107].veinsmobility 	totalTime 	319.8
scalar RSUExampleScenario.node[107].veinsmobility 	stopTime 	641
scalar RSUExampleScenario.node[107].veinsmobility 	minSpeed 	0.25463903585984
scalar RSUExampleScenario.node[107].veinsmobility 	maxSpeed 	13.999950053559
scalar RSUExampleScenario.node[107].veinsmobility 	totalDistance 	3409.8053533168
scalar RSUExampleScenario.node[107].veinsmobility 	totalCO2Emission 	741.42043936863
scalar RSUExampleScenario.node[108].veinsmobility 	startTime 	324.1
scalar RSUExampleScenario.node[108].veinsmobility 	totalTime 	320.5
scalar RSUExampleScenario.node[108].veinsmobility 	stopTime 	644.7
scalar RSUExampleScenario.node[108].veinsmobility 	minSpeed 	0.25361630750285
scalar RSUExampleScenario.node[108].veinsmobility 	maxSpeed 	13.999971501271
scalar RSUExampleScenario.node[108].veinsmobility 	totalDistance 	3409.4461916497
scalar RSUExampleScenario.node[108].veinsmobility 	totalCO2Emission 	745.55939851717
scalar RSUExampleScenario.node[109].veinsmobility 	startTime 	327.1
scalar RSUExampleScenario.node[109].veinsmobility 	totalTime 	321.2
scalar RSUExampleScenario.node[109].veinsmobility 	stopTime 	648.4
scalar RSUExampleScenario.node[109].veinsmobility 	minSpeed 	0.24856037991913
scalar RSUExampleScenario.node[109].veinsmobility 	maxSpeed 	13.999983429792
scalar RSUExampleScenario.node[109].veinsmobility 	totalDistance 	3414.064519261
scalar RSUExampleScenario.node[109].veinsmobility 	totalCO2Emission 	743.34302694461
scalar RSUExampleScenario.node[110].veinsmobility 	startTime 	330.1
scalar RSUExampleScenario.node[110].veinsmobility 	totalTime 	321.8
scalar RSUExampleScenario.node[110].veinsmobility 	stopTime 	652
scalar RSUExampleScenario.node[110].veinsmobility 	minSpeed 	0.25105699400255
scalar RSUExampleScenario.node[110].veinsmobility 	maxSpeed 	13.99997486583
scalar RSUExampleScenario.node[110].veinsmobility 	totalDistance 	3409.7361377769
scalar RSUExampleScenario.node[110].veinsmobility 	totalCO2Emission 	739.53248653549
scalar RSUExampleScenario.node[111].veinsmobility 	startTime 	333.1
scalar RSUExampleScenario.node[111].veinsmobility 	totalTime 	322.5
scalar RSUExampleScenario.node[111].veinsmobility 	stopTime 	655.7
scalar RSUExampleScenario.node[111].veinsmobility 	minSpeed 	0.25299923943169
scalar RSUExampleScenario.node[111].veinsmobility 	maxSpeed 	13.99988249654
scalar RSUExampleScenario.node[111].veinsmobility 	totalDistance 	3414.052369804
scalar RSUExampleScenario.node[111].veinsmobility 	totalCO2Emission 	745.76521499211
scalar RSUExampleScenario.node[112].veinsmobility 	startTime 	336.1
scalar RSUExampleScenario.node[112].veinsmobility 	totalTime 	323.1
scalar RSUExampleScenario.node[112].veinsmobility 	stopTime 	659.3
scalar RSUExampleScenario.node[112].veinsmobility 	minSpeed 	0.25884113884694
scalar RSUExampleScenario.node[112].veinsmobility 	maxSpeed 	13.99998842519
scalar RSUExampleScenario.node[112].veinsmobility 	totalDistance 	3409.7207453024
scalar RSUExampleScenario.node[112].veinsmobility 	totalCO2Emission 	746.75971687196
scalar RSUExampleScenario.node[113].veinsmobility 	startTime 	339.1
scalar RSUExampleScenario.node[113].veinsmobility 	totalTime 	323.9
scalar RSUExampleScenario.node[113].veinsmobility 	stopTime 	663.1
scalar RSUExampleScenario.node[113].veinsmobility 	minSpeed 	0.25134183676518
scalar RSUExampleScenario.node[113].veinsmobility 	maxSpeed 	13.999968742223
scalar RSUExampleScenario.node[113].veinsmobility 	totalDistance 	3413.8016680725
scalar RSUExampleScenario.node[113].veinsmobility 	totalCO2Emission 	746.20327540823
scalar RSUExampleScenario.node[114].veinsmobility 	startTime 	342.1
scalar RSUExampleScenario.node[114].veinsmobility 	totalTime 	324.7
scalar RSUExampleScenario.node[114].veinsmobility 	stopTime 	666.9
scalar RSUExampleScenario.node[114].veinsmobility 	minSpeed 	0.25212924225489
scalar RSUExampleScenario.node[114].veinsmobility 	maxSpeed 	13.999726243371
scalar RSUExampleScenario.node[114].veinsmobility 	totalDistance 	3409.6059498285
scalar RSUExampleScenario.node[114].veinsmobility 	totalCO2Emission 	746.19296220809
scalar RSUExampleScenario.node[115].veinsmobility 	startTime 	345.1
scalar RSUExampleScenario.node[115].veinsmobility 	totalTime 	325.5
scalar RSUExampleScenario.node[115].veinsmobility 	stopTime 	670.7
scalar RSUExampleScenario.node[115].veinsmobility 	minSpeed 	0.25416269006766
scalar RSUExampleScenario.node[115].veinsmobility 	maxSpeed 	13.999930232752
scalar RSUExampleScenario.node[115].veinsmobility 	totalDistance 	3414.3656236836
scalar RSUExampleScenario.node[115].veinsmobility 	totalCO2Emission 	746.75998203533
scalar RSUExampleScenario.node[116].veinsmobility 	startTime 	348.1
scalar RSUExampleScenario.node[116].veinsmobility 	totalTime 	326.2
scalar RSUExampleScenario.node[116].veinsmobility 	stopTime 	674.4
scalar RSUExampleScenario.node[116].veinsmobility 	minSpeed 	0.25901899056183
scalar RSUExampleScenario.node[116].veinsmobility 	maxSpeed 	13.99990429539
scalar RSUExampleScenario.node[116].veinsmobility 	totalDistance 	3409.8889581445
scalar RSUExampleScenario.node[116].veinsmobility 	totalCO2Emission 	744.10546056559
scalar RSUExampleScenario.node[117].veinsmobility 	startTime 	351.1
scalar RSUExampleScenario.node[117].veinsmobility 	totalTime 	326.9
scalar RSUExampleScenario.node[117].veinsmobility 	stopTime 	678.1
scalar RSUExampleScenario.node[117].veinsmobility 	minSpeed 	0.25479899916612
scalar RSUExampleScenario.node[117].veinsmobility 	maxSpeed 	13.999782748339
scalar RSUExampleScenario.node[117].veinsmobility 	totalDistance 	3414.2899270312
scalar RSUExampleScenario.node[117].veinsmobility 	totalCO2Emission 	752.62174138704
scalar RSUExampleScenario.node[118].veinsmobility 	startTime 	354.1
scalar RSUExampleScenario.node[118].veinsmobility 	totalTime 	327.6
scalar RSUExampleScenario.node[118].veinsmobility 	stopTime 	681.8
scalar RSUExampleScenario.node[118].veinsmobility 	minSpeed 	0.24808393698488
scalar RSUExampleScenario.node[118].veinsmobility 	maxSpeed 	13.999960679952
scalar RSUExampleScenario.node[118].veinsmobility 	totalDistance 	3409.8706827265
scalar RSUExampleScenario.node[118].veinsmobility 	totalCO2Emission 	750.20127167908
scalar RSUExampleScenario.node[119].veinsmobility 	startTime 	357.1
scalar RSUExampleScenario.node[119].veinsmobility 	totalTime 	328.3
scalar RSUExampleScenario.node[119].veinsmobility 	stopTime 	685.5
scalar RSUExampleScenario.node[119].veinsmobility 	minSpeed 	0.25293876353721
scalar RSUExampleScenario.node[119].veinsmobility 	maxSpeed 	13.99998416252
scalar RSUExampleScenario.node[119].veinsmobility 	totalDistance 	3414.118841913
scalar RSUExampleScenario.node[119].veinsmobility 	totalCO2Emission 	753.51482260538
scalar RSUExampleScenario.node[120].veinsmobility 	startTime 	360.1
scalar RSUExampleScenario.node[120].veinsmobility 	totalTime 	329
scalar RSUExampleScenario.node[120].veinsmobility 	stopTime 	689.2
scalar RSUExampleScenario.node[120].veinsmobility 	minSpeed 	0.25039176253509
scalar RSUExampleScenario.node[120].veinsmobility 	maxSpeed 	13.999845308024
scalar RSUExampleScenario.node[120].veinsmobility 	totalDistance 	3409.601103711
scalar RSUExampleScenario.node[120].veinsmobility 	totalCO2Emission 	749.74988553987
scalar RSUExampleScenario.node[121].veinsmobility 	startTime 	363.1
scalar RSUExampleScenario.node[121].veinsmobility 	totalTime 	329.7
scalar RSUExampleScenario.node[121].veinsmobility 	stopTime 	692.9
scalar RSUExampleScenario.node[121].veinsmobility 	minSpeed 	0.25532921090629
scalar RSUExampleScenario.node[121].veinsmobility 	maxSpeed 	13.999868577141
scalar RSUExampleScenario.node[121].veinsmobility 	totalDistance 	3410.0446129531
scalar RSUExampleScenario.node[121].veinsmobility 	totalCO2Emission 	752.42993775733
scalar RSUExampleScenario.node[122].veinsmobility 	startTime 	366.1
scalar RSUExampleScenario.node[122].veinsmobility 	totalTime 	330.3
scalar RSUExampleScenario.node[122].veinsmobility 	stopTime 	696.5
scalar RSUExampleScenario.node[122].veinsmobility 	minSpeed 	0.24867309948243
scalar RSUExampleScenario.node[122].veinsmobility 	maxSpeed 	13.999950170757
scalar RSUExampleScenario.node[122].veinsmobility 	totalDistance 	3413.587750453
scalar RSUExampleScenario.node[122].veinsmobility 	totalCO2Emission 	751.10143365201
scalar RSUExampleScenario.node[123].veinsmobility 	startTime 	369.1
scalar RSUExampleScenario.node[123].veinsmobility 	totalTime 	331
scalar RSUExampleScenario.node[123].veinsmobility 	stopTime 	700.2
scalar RSUExampleScenario.node[123].veinsmobility 	minSpeed 	0.25467439649533
scalar RSUExampleScenario.node[123].veinsmobility 	maxSpeed 	13.999618592714
scalar RSUExampleScenario.node[123].veinsmobility 	totalDistance 	3409.8764480932
scalar RSUExampleScenario.node[123].veinsmobility 	totalCO2Emission 	754.79549917299
scalar RSUExampleScenario.node[124].veinsmobility 	startTime 	372.1
scalar RSUExampleScenario.node[124].veinsmobility 	totalTime 	331.7
scalar RSUExampleScenario.node[124].veinsmobility 	stopTime 	703.9
scalar RSUExampleScenario.node[124].veinsmobility 	minSpeed 	0.25073124033702
scalar RSUExampleScenario.node[124].veinsmobility 	maxSpeed 	13.99991732385
scalar RSUExampleScenario.node[124].veinsmobility 	totalDistance 	3413.833618287
scalar RSUExampleScenario.node[124].veinsmobility 	totalCO2Emission 	753.81209282213
scalar RSUExampleScenario.node[125].veinsmobility 	startTime 	375.1
scalar RSUExampleScenario.node[125].veinsmobility 	totalTime 	332.4
scalar RSUExampleScenario.node[125].veinsmobility 	stopTime 	707.6
scalar RSUExampleScenario.node[125].veinsmobility 	minSpeed 	0.25276876342809
scalar RSUExampleScenario.node[125].veinsmobility 	maxSpeed 	13.999995464645
scalar RSUExampleScenario.node[125].veinsmobility 	totalDistance 	3410.0664036651
scalar RSUExampleScenario.node[125].veinsmobility 	totalCO2Emission 	751.08795574277
scalar RSUExampleScenario.node[126].veinsmobility 	startTime 	378.1
scalar RSUExampleScenario.node[126].veinsmobility 	totalTime 	333.1
scalar RSUExampleScenario.node[126].veinsmobility 	stopTime 	711.3
scalar RSUExampleScenario.node[126].veinsmobility 	minSpeed 	0.24955091749458
scalar RSUExampleScenario.node[126].veinsmobility 	maxSpeed 	13.999840240981
scalar RSUExampleScenario.node[126].veinsmobility 	totalDistance 	3413.8193157042
scalar RSUExampleScenario.node[126].veinsmobility 	totalCO2Emission 	758.46259870551
scalar RSUExampleScenario.node[127].veinsmobility 	startTime 	381.1
scalar RSUExampleScenario.node[127].veinsmobility 	totalTime 	333.7
scalar RSUExampleScenario.node[127].veinsmobility 	stopTime 	714.9
scalar RSUExampleScenario.node[127].veinsmobility 	minSpeed 	0.2511530602756
scalar RSUExampleScenario.node[127].veinsmobility 	maxSpeed 	13.99992815549
scalar RSUExampleScenario.node[127].veinsmobility 	totalDistance 	3409.6359156307
scalar RSUExampleScenario.node[127].veinsmobility 	totalCO2Emission 	751.88674542304
scalar RSUExampleScenario.node[128].veinsmobility 	startTime 	384.1
scalar RSUExampleScenario.node[128].veinsmobility 	totalTime 	334.3
scalar RSUExampleScenario.node[128].veinsmobility 	stopTime 	718.5
scalar RSUExampleScenario.node[128].veinsmobility 	minSpeed 	0.24808392860973
scalar RSUExampleScenario.node[128].veinsmobility 	maxSpeed 	13.999981723526
scalar RSUExampleScenario.node[128].veinsmobility 	totalDistance 	3413.7052391433
scalar RSUExampleScenario.node[128].veinsmobility 	totalCO2Emission 	754.5946380985
scalar RSUExampleScenario.node[129].veinsmobility 	startTime 	387.1
scalar RSUExampleScenario.node[129].veinsmobility 	totalTime 	334.9
scalar RSUExampleScenario.node[129].veinsmobility 	stopTime 	722.1
scalar RSUExampleScenario.node[129].veinsmobility 	minSpeed 	0.25283856661059
scalar RSUExampleScenario.node[129].veinsmobility 	maxSpeed 	13.99999974702
scalar RSUExampleScenario.node[129].veinsmobility 	totalDistance 	3410.0030990803
scalar RSUExampleScenario.node[129].veinsmobility 	totalCO2Emission 	758.25816264398
scalar RSUExampleScenario.node[130].veinsmobility 	startTime 	390.1
scalar RSUExampleScenario.node[130].veinsmobility 	totalTime 	335.5
scalar RSUExampleScenario.node[130].veinsmobility 	stopTime 	725.7
scalar RSUExampleScenario.node[130].veinsmobility 	minSpeed 	0.2523235424608
scalar RSUExampleScenario.node[130].veinsmobility 	maxSpeed 	13.999919028755
scalar RSUExampleScenario.node[130].veinsmobility 	totalDistance 	3413.8066601603
scalar RSUExampleScenario.node[130].veinsmobility 	totalCO2Emission 	757.94938286241
scalar RSUExampleScenario.node[131].veinsmobility 	startTime 	393.1
scalar RSUExampleScenario.node[131].veinsmobility 	totalTime 	336.1
scalar RSUExampleScenario.node[131].veinsmobility 	stopTime 	729.3
scalar RSUExampleScenario.node[131].veinsmobility 	minSpeed 	0.25561693092529
scalar RSUExampleScenario.node[131].veinsmobility 	maxSpeed 	13.999999480995
scalar RSUExampleScenario.node[131].veinsmobility 	totalDistance 	3409.5802186737
scalar RSUExampleScenario.node[131].veinsmobility 	totalCO2Emission 	760.53322442862
scalar RSUExampleScenario.node[132].veinsmobility 	startTime 	396.1
scalar RSUExampleScenario.node[132].veinsmobility 	totalTime 	336.8
scalar RSUExampleScenario.node[132].veinsmobility 	stopTime 	733
scalar RSUExampleScenario.node[132].veinsmobility 	minSpeed 	0.25064438379416
scalar RSUExampleScenario.node[132].veinsmobility 	maxSpeed 	13.999832129676
scalar RSUExampleScenario.node[132].veinsmobility 	totalDistance 	3414.1833191067
scalar RSUExampleScenario.node[132].veinsmobility 	totalCO2Emission 	753.87994295988
scalar RSUExampleScenario.node[133].veinsmobility 	startTime 	399.1
scalar RSUExampleScenario.node[133].veinsmobility 	totalTime 	337.6
scalar RSUExampleScenario.node[133].veinsmobility 	stopTime 	736.8
scalar RSUExampleScenario.node[133].veinsmobility 	minSpeed 	0.24706655779178
scalar RSUExampleScenario.node[133].veinsmobility 	maxSpeed 	13.999968518179
scalar RSUExampleScenario.node[133].veinsmobility 	totalDistance 	3410.1251342595
scalar RSUExampleScenario.node[133].veinsmobility 	totalCO2Emission 	764.5938490403
scalar RSUExampleScenario.node[134].veinsmobility 	startTime 	402.1
scalar RSUExampleScenario.node[134].veinsmobility 	totalTime 	338.3
scalar RSUExampleScenario.node[134].veinsmobility 	stopTime 	740.5
scalar RSUExampleScenario.node[134].veinsmobility 	minSpeed 	0.2576166349547
scalar RSUExampleScenario.node[134].veinsmobility 	maxSpeed 	13.999926315651
scalar RSUExampleScenario.node[134].veinsmobility 	totalDistance 	3414.1423490232
scalar RSUExampleScenario.node[134].veinsmobility 	totalCO2Emission 	758.1044165733
scalar RSUExampleScenario.node[135].veinsmobility 	startTime 	405.1
scalar RSUExampleScenario.node[135].veinsmobility 	totalTime 	339
scalar RSUExampleScenario.node[135].veinsmobility 	stopTime 	744.2
scalar RSUExampleScenario.node[135].veinsmobility 	minSpeed 	0.25231466469471
scalar RSUExampleScenario.node[135].veinsmobility 	maxSpeed 	13.999896979134
scalar RSUExampleScenario.node[135].veinsmobility 	totalDistance 	3409.6099233033
scalar RSUExampleScenario.node[135].veinsmobility 	totalCO2Emission 	758.0866504309
scalar RSUExampleScenario.node[136].veinsmobility 	startTime 	408.1
scalar RSUExampleScenario.node[136].veinsmobility 	totalTime 	339.6
scalar RSUExampleScenario.node[136].veinsmobility 	stopTime 	747.8
scalar RSUExampleScenario.node[136].veinsmobility 	minSpeed 	0.2539992007683
scalar RSUExampleScenario.node[136].veinsmobility 	maxSpeed 	13.999794508358
scalar RSUExampleScenario.node[136].veinsmobility 	totalDistance 	3413.6710747947
scalar RSUExampleScenario.node[136].veinsmobility 	totalCO2Emission 	765.9212242514
scalar RSUExampleScenario.node[137].veinsmobility 	startTime 	411.1
scalar RSUExampleScenario.node[137].veinsmobility 	totalTime 	340.3
scalar RSUExampleScenario.node[137].veinsmobility 	stopTime 	751.5
scalar RSUExampleScenario.node[137].veinsmobility 	minSpeed 	0.24731441472797
scalar RSUExampleScenario.node[137].veinsmobility 	maxSpeed 	13.999977769558
scalar RSUExampleScenario.node[137].veinsmobility 	totalDistance 	3409.5850126602
scalar RSUExampleScenario.node[137].veinsmobility 	totalCO2Emission 	764.89647110225
scalar RSUExampleScenario.node[138].veinsmobility 	startTime 	414.1
scalar RSUExampleScenario.node[138].veinsmobility 	totalTime 	341.1
scalar RSUExampleScenario.node[138].veinsmobility 	stopTime 	755.3
scalar RSUExampleScenario.node[138].veinsmobility 	minSpeed 	0.25589319025679
scalar RSUExampleScenario.node[138].veinsmobility 	maxSpeed 	13.999989428241
scalar RSUExampleScenario.node[138].veinsmobility 	totalDistance 	3414.4464206242
scalar RSUExampleScenario.node[138].veinsmobility 	totalCO2Emission 	763.31869197839
scalar RSUExampleScenario.node[139].veinsmobility 	startTime 	417.1
scalar RSUExampleScenario.node[139].veinsmobility 	totalTime 	341.8
scalar RSUExampleScenario.node[139].veinsmobility 	stopTime 	759
scalar RSUExampleScenario.node[139].veinsmobility 	minSpeed 	0.24977198587591
scalar RSUExampleScenario.node[139].veinsmobility 	maxSpeed 	13.999828106093
scalar RSUExampleScenario.node[139].veinsmobility 	totalDistance 	3409.968243691
scalar RSUExampleScenario.node[139].veinsmobility 	totalCO2Emission 	763.31044564159
scalar RSUExampleScenario.node[140].veinsmobility 	startTime 	420.1
scalar RSUExampleScenario.node[140].veinsmobility 	totalTime 	342.5
scalar RSUExampleScenario.node[140].veinsmobility 	stopTime 	762.7
scalar RSUExampleScenario.node[140].veinsmobility 	minSpeed 	0.24839278557897
scalar RSUExampleScenario.node[140].veinsmobility 	maxSpeed 	13.999981446967
scalar RSUExampleScenario.node[140].veinsmobility 	totalDistance 	3414.1469650797
scalar RSUExampleScenario.node[140].veinsmobility 	totalCO2Emission 	764.19870776329
scalar RSUExampleScenario.node[141].veinsmobility 	startTime 	423.1
scalar RSUExampleScenario.node[141].veinsmobility 	totalTime 	343.2
scalar RSUExampleScenario.node[141].veinsmobility 	stopTime 	766.4
scalar RSUExampleScenario.node[141].veinsmobility 	minSpeed 	0.2471885667264
scalar RSUExampleScenario.node[141].veinsmobility 	maxSpeed 	13.999882024813
scalar RSUExampleScenario.node[141].veinsmobility 	totalDistance 	3409.6459640931
scalar RSUExampleScenario.node[141].veinsmobility 	totalCO2Emission 	762.25792400642
scalar RSUExampleScenario.node[142].veinsmobility 	startTime 	426.1
scalar RSUExampleScenario.node[142].veinsmobility 	totalTime 	343.9
scalar RSUExampleScenario.node[142].veinsmobility 	stopTime 	770.1
scalar RSUExampleScenario.node[142].veinsmobility 	minSpeed 	0.25639454813348
scalar RSUExampleScenario.node[142].veinsmobility 	maxSpeed 	13.999866666081
scalar RSUExampleScenario.node[142].veinsmobility 	totalDistance 	3414.0970534134
scalar RSUExampleScenario.node[142].veinsmobility 	totalCO2Emission 	766.4801909819
scalar RSUExampleScenario.node[143].veinsmobility 	startTime 	429.1
scalar RSUExampleScenario.node[143].veinsmobility 	totalTime 	344.6
scalar RSUExampleScenario.node[143].veinsmobility 	stopTime 	773.8
scalar RSUExampleScenario.node[143].veinsmobility 	minSpeed 	0.25345556542557
scalar RSUExampleScenario.node[143].veinsmobility 	maxSpeed 	13.999997239651
scalar RSUExampleScenario.node[143].veinsmobility 	totalDistance 	3409.7327209416
scalar RSUExampleScenario.node[143].veinsmobility 	totalCO2Emission 	763.25815554375
scalar RSUExampleScenario.node[144].veinsmobility 	startTime 	432.1
scalar RSUExampleScenario.node[144].veinsmobility 	totalTime 	345.3
scalar RSUExampleScenario.node[144].veinsmobility 	stopTime 	777.5
scalar RSUExampleScenario.node[144].veinsmobility 	minSpeed 	0.25579326538183
scalar RSUExampleScenario.node[144].veinsmobility 	maxSpeed 	13.999861145534
scalar RSUExampleScenario.node[144].veinsmobility 	totalDistance 	3414.0067030787
scalar RSUExampleScenario.node[144].veinsmobility 	totalCO2Emission 	764.39634988946
scalar RSUExampleScenario.node[145].veinsmobility 	startTime 	435.1
scalar RSUExampleScenario.node[145].veinsmobility 	totalTime 	346
scalar RSUExampleScenario.node[145].veinsmobility 	stopTime 	781.2
scalar RSUExampleScenario.node[145].veinsmobility 	minSpeed 	0.25978651459911
scalar RSUExampleScenario.node[145].veinsmobility 	maxSpeed 	13.999949259358
scalar RSUExampleScenario.node[145].veinsmobility 	totalDistance 	3409.7786049005
scalar RSUExampleScenario.node[145].veinsmobility 	totalCO2Emission 	770.94572028449
scalar RSUExampleScenario.node[146].veinsmobility 	startTime 	438.1
scalar RSUExampleScenario.node[146].veinsmobility 	totalTime 	346.6
scalar RSUExampleScenario.node[146].veinsmobility 	stopTime 	784.8
scalar RSUExampleScenario.node[146].veinsmobility 	minSpeed 	0.24914643235411
scalar RSUExampleScenario.node[146].veinsmobility 	maxSpeed 	13.999980124286
scalar RSUExampleScenario.node[146].veinsmobility 	totalDistance 	3413.9644886022
scalar RSUExampleScenario.node[146].veinsmobility 	totalCO2Emission 	769.23394373673
scalar RSUExampleScenario.node[147].veinsmobility 	startTime 	441.1
scalar RSUExampleScenario.node[147].veinsmobility 	totalTime 	347.3
scalar RSUExampleScenario.node[147].veinsmobility 	stopTime 	788.5
scalar RSUExampleScenario.node[147].veinsmobility 	minSpeed 	0.25508575961133
scalar RSUExampleScenario.node[147].veinsmobility 	maxSpeed 	13.999995644861
scalar RSUExampleScenario.node[147].veinsmobility 	totalDistance 	3410.2605538194
scalar RSUExampleScenario.node[147].veinsmobility 	totalCO2Emission 	772.43431167351
scalar RSUExampleScenario.node[148].veinsmobility 	startTime 	444.1
scalar RSUExampleScenario.node[148].veinsmobility 	totalTime 	348
scalar RSUExampleScenario.node[148].veinsmobility 	stopTime 	792.2
scalar RSUExampleScenario.node[148].veinsmobility 	minSpeed 	0.25253974825726
scalar RSUExampleScenario.node[148].veinsmobility 	maxSpeed 	13.999957157637
scalar RSUExampleScenario.node[148].veinsmobility 	totalDistance 	3413.8051893616
scalar RSUExampleScenario.node[148].veinsmobility 	totalCO2Emission 	771.89707801853
scalar RSUExampleScenario.node[149].veinsmobility 	startTime 	447.1
scalar RSUExampleScenario.node[149].veinsmobility 	totalTime 	348.8
scalar RSUExampleScenario.node[149].veinsmobility 	stopTime 	796
scalar RSUExampleScenario.node[149].veinsmobility 	minSpeed 	0.24739457885316
scalar RSUExampleScenario.node[149].veinsmobility 	maxSpeed 	13.999951989711
scalar RSUExampleScenario.node[149].veinsmobility 	totalDistance 	3410.2307676071
scalar RSUExampleScenario.node[149].veinsmobility 	totalCO2Emission 	772.70057998395
scalar RSUExampleScenario.node[150].veinsmobility 	startTime 	450.1
scalar RSUExampleScenario.node[150].veinsmobility 	totalTime 	349.5
scalar RSUExampleScenario.node[150].veinsmobility 	stopTime 	799.7
scalar RSUExampleScenario.node[150].veinsmobility 	minSpeed 	0.2587511154497
scalar RSUExampleScenario.node[150].veinsmobility 	maxSpeed 	13.999824618737
scalar RSUExampleScenario.node[150].veinsmobility 	totalDistance 	3413.9694547493
scalar RSUExampleScenario.node[150].veinsmobility 	totalCO2Emission 	769.42316377515
scalar RSUExampleScenario.node[151].veinsmobility 	startTime 	453.1
scalar RSUExampleScenario.node[151].veinsmobility 	totalTime 	350.2
scalar RSUExampleScenario.node[151].veinsmobility 	stopTime 	803.4
scalar RSUExampleScenario.node[151].veinsmobility 	minSpeed 	0.25750606152159
scalar RSUExampleScenario.node[151].veinsmobility 	maxSpeed 	13.999920879581
scalar RSUExampleScenario.node[151].veinsmobility 	totalDistance 	3409.7660895428
scalar RSUExampleScenario.node[151].veinsmobility 	totalCO2Emission 	770.76520164029
scalar RSUExampleScenario.node[152].veinsmobility 	startTime 	456.1
scalar RSUExampleScenario.node[152].veinsmobility 	totalTime 	350.8
scalar RSUExampleScenario.node[152].veinsmobility 	stopTime 	807
scalar RSUExampleScenario.node[152].veinsmobility 	minSpeed 	0.25626245800196
scalar RSUExampleScenario.node[152].veinsmobility 	maxSpeed 	13.999955669299
scalar RSUExampleScenario.node[152].veinsmobility 	totalDistance 	3414.0346333601
scalar RSUExampleScenario.node[152].veinsmobility 	totalCO2Emission 	771.78845032063
[...]
scalar RSUExampleScenario.node[628].veinsmobility 	totalCO2Emission 	322.6593487476
scalar RSUExampleScenario.node[629].veinsmobility 	startTime 	1887.1
scalar RSUExampleScenario.node[629].veinsmobility 	totalTime 	112.8
scalar RSUExampleScenario.node[629].veinsmobility 	stopTime 	2000
scalar RSUExampleScenario.node[629].veinsmobility 	minSpeed 	0.25520959083596
scalar RSUExampleScenario.node[629].veinsmobility 	maxSpeed 	13.999961871936
scalar RSUExampleScenario.node[629].veinsmobility 	totalDistance 	1362.8420150879
scalar RSUExampleScenario.node[629].veinsmobility 	totalCO2Emission 	316.44250397637
scalar RSUExampleScenario.node[630].veinsmobility 	startTime 	1890.1
scalar RSUExampleScenario.node[630].veinsmobility 	totalTime 	109.8
scalar RSUExampleScenario.node[630].veinsmobility 	stopTime 	2000
scalar RSUExampleScenario.node[630].veinsmobility 	minSpeed 	0.25516742817336
scalar RSUExampleScenario.node[630].veinsmobility 	maxSpeed 	13.999919923628
scalar RSUExampleScenario.node[630].veinsmobility 	totalDistance 	1320.7943443449
scalar RSUExampleScenario.node[630].veinsmobility 	totalCO2Emission 	310.95174078432
scalar RSUExampleScenario.node[631].veinsmobility 	startTime 	1893.1
scalar RSUExampleScenario.node[631].veinsmobility 	totalTime 	106.8
scalar RSUExampleScenario.node[631].veinsmobility 	stopTime 	2000
scalar RSUExampleScenario.node[631].veinsmobility 	minSpeed 	0.25993138170312
scalar RSUExampleScenario.node[631].veinsmobility 	maxSpeed 	13.999983623568
scalar RSUExampleScenario.node[631].veinsmobility 	totalDistance 	1278.6304511385
scalar RSUExampleScenario.node[631].veinsmobility 	totalCO2Emission 	303.41505372005
scalar RSUExampleScenario.node[632].veinsmobility 	startTime 	1896.1
scalar RSUExampleScenario.node[632].veinsmobility 	totalTime 	103.8
scalar RSUExampleScenario.node[632].veinsmobility 	stopTime 	2000
scalar RSUExampleScenario.node[632].veinsmobility 	minSpeed 	0.25149373838468
scalar RSUExampleScenario.node[632].veinsmobility 	maxSpeed 	13.999944223491
scalar RSUExampleScenario.node[632].veinsmobility 	totalDistance 	1236.6646635431
scalar RSUExampleScenario.node[632].veinsmobility 	totalCO2Emission 	295.88990261819
scalar RSUExampleScenario.node[633].veinsmobility 	startTime 	1899.1
scalar RSUExampleScenario.node[633].veinsmobility 	totalTime 	100.8
scalar RSUExampleScenario.node[633].veinsmobility 	stopTime 	2000
scalar RSUExampleScenario.node[633].veinsmobility 	minSpeed 	0.25160281736637
scalar RSUExampleScenario.node[633].veinsmobility 	maxSpeed 	13.999956899965
scalar RSUExampleScenario.node[633].veinsmobility 	totalDistance 	1195.489044352
scalar RSUExampleScenario.node[633].veinsmobility 	totalCO2Emission 	289.34639144872
scalar RSUExampleScenario.node[634].veinsmobility 	startTime 	1902.1
scalar RSUExampleScenario.node[634].veinsmobility 	totalTime 	97.8
scalar RSUExampleScenario.node[634].veinsmobility 	stopTime 	2000
scalar RSUExampleScenario.node[634].veinsmobility 	minSpeed 	0.25068624079856
scalar RSUExampleScenario.node[634].veinsmobility 	maxSpeed 	13.999739703301
scalar RSUExampleScenario.node[634].veinsmobility 	totalDistance 	1154.1853913869
scalar RSUExampleScenario.node[634].veinsmobility 	totalCO2Emission 	281.33258389079
scalar RSUExampleScenario.node[635].veinsmobility 	startTime 	1905.1
scalar RSUExampleScenario.node[635].veinsmobility 	totalTime 	94.8
scalar RSUExampleScenario.node[635].veinsmobility 	stopTime 	2000
scalar RSUExampleScenario.node[635].veinsmobility 	minSpeed 	0.25718173069041
scalar RSUExampleScenario.node[635].veinsmobility 	maxSpeed 	13.999721098812
scalar RSUExampleScenario.node[635].veinsmobility 	totalDistance 	1109.4270230478
scalar RSUExampleScenario.node[635].veinsmobility 	totalCO2Emission 	273.36713248696
scalar RSUExampleScenario.node[636].veinsmobility 	startTime 	1908.1
scalar RSUExampleScenario.node[636].veinsmobility 	totalTime 	91.8
scalar RSUExampleScenario.node[636].veinsmobility 	stopTime 	2000
scalar RSUExampleScenario.node[636].veinsmobility 	minSpeed 	0.25320587077481
scalar RSUExampleScenario.node[636].veinsmobility 	maxSpeed 	13.999809615836
scalar RSUExampleScenario.node[636].veinsmobility 	totalDistance 	1068.2417408247
scalar RSUExampleScenario.node[636].veinsmobility 	totalCO2Emission 	266.51521103916
scalar RSUExampleScenario.node[637].veinsmobility 	startTime 	1911.1
scalar RSUExampleScenario.node[637].veinsmobility 	totalTime 	88.8
scalar RSUExampleScenario.node[637].veinsmobility 	stopTime 	2000
scalar RSUExampleScenario.node[637].veinsmobility 	minSpeed 	0.25584265222214
scalar RSUExampleScenario.node[637].veinsmobility 	maxSpeed 	13.999995704761
scalar RSUExampleScenario.node[637].veinsmobility 	totalDistance 	1026.6750943194
scalar RSUExampleScenario.node[637].veinsmobility 	totalCO2Emission 	260.5584142091
scalar RSUExampleScenario.node[638].veinsmobility 	startTime 	1914.1
scalar RSUExampleScenario.node[638].veinsmobility 	totalTime 	85.8
scalar RSUExampleScenario.node[638].veinsmobility 	stopTime 	2000
scalar RSUExampleScenario.node[638].veinsmobility 	minSpeed 	0.25005027330457
scalar RSUExampleScenario.node[638].veinsmobility 	maxSpeed 	13.999307882085
scalar RSUExampleScenario.node[638].veinsmobility 	totalDistance 	985.36705327694
scalar RSUExampleScenario.node[638].veinsmobility 	totalCO2Emission 	253.19772775597
scalar RSUExampleScenario.node[639].veinsmobility 	startTime 	1917.1
scalar RSUExampleScenario.node[639].veinsmobility 	totalTime 	82.8
scalar RSUExampleScenario.node[639].veinsmobility 	stopTime 	2000
scalar RSUExampleScenario.node[639].veinsmobility 	minSpeed 	0.24937555928645
scalar RSUExampleScenario.node[639].veinsmobility 	maxSpeed 	13.999917444347
scalar RSUExampleScenario.node[639].veinsmobility 	totalDistance 	953.28689816993
scalar RSUExampleScenario.node[639].veinsmobility 	totalCO2Emission 	231.42070632502
scalar RSUExampleScenario.node[640].veinsmobility 	startTime 	1920.1
scalar RSUExampleScenario.node[640].veinsmobility 	totalTime 	79.8
scalar RSUExampleScenario.node[640].veinsmobility 	stopTime 	2000
scalar RSUExampleScenario.node[640].veinsmobility 	minSpeed 	0.24864842326357
scalar RSUExampleScenario.node[640].veinsmobility 	maxSpeed 	13.999484500492
scalar RSUExampleScenario.node[640].veinsmobility 	totalDistance 	937.62684314382
scalar RSUExampleScenario.node[640].veinsmobility 	totalCO2Emission 	222.37461753343
scalar RSUExampleScenario.node[641].veinsmobility 	startTime 	1923.1
scalar RSUExampleScenario.node[641].veinsmobility 	totalTime 	76.8
scalar RSUExampleScenario.node[641].veinsmobility 	stopTime 	2000
scalar RSUExampleScenario.node[641].veinsmobility 	minSpeed 	0.25817054846627
scalar RSUExampleScenario.node[641].veinsmobility 	maxSpeed 	13.999837967977
scalar RSUExampleScenario.node[641].veinsmobility 	totalDistance 	913.58610105773
scalar RSUExampleScenario.node[641].veinsmobility 	totalCO2Emission 	218.31666726026
scalar RSUExampleScenario.node[642].veinsmobility 	startTime 	1926.1
scalar RSUExampleScenario.node[642].veinsmobility 	totalTime 	73.8
scalar RSUExampleScenario.node[642].veinsmobility 	stopTime 	2000
scalar RSUExampleScenario.node[642].veinsmobility 	minSpeed 	0.25805921965325
scalar RSUExampleScenario.node[642].veinsmobility 	maxSpeed 	13.999949555984
scalar RSUExampleScenario.node[642].veinsmobility 	totalDistance 	876.52809805374
scalar RSUExampleScenario.node[642].veinsmobility 	totalCO2Emission 	214.23714664646
scalar RSUExampleScenario.node[643].veinsmobility 	startTime 	1929.1
scalar RSUExampleScenario.node[643].veinsmobility 	totalTime 	70.8
scalar RSUExampleScenario.node[643].veinsmobility 	stopTime 	2000
scalar RSUExampleScenario.node[643].veinsmobility 	minSpeed 	0.25447974795639
scalar RSUExampleScenario.node[643].veinsmobility 	maxSpeed 	13.999745548049
scalar RSUExampleScenario.node[643].veinsmobility 	totalDistance 	832.31817075109
scalar RSUExampleScenario.node[643].veinsmobility 	totalCO2Emission 	208.26236799859
scalar RSUExampleScenario.node[644].veinsmobility 	startTime 	1932.1
scalar RSUExampleScenario.node[644].veinsmobility 	totalTime 	67.8
scalar RSUExampleScenario.node[644].veinsmobility 	stopTime 	2000
scalar RSUExampleScenario.node[644].veinsmobility 	minSpeed 	0.25738702046569
scalar RSUExampleScenario.node[644].veinsmobility 	maxSpeed 	13.99970284858
scalar RSUExampleScenario.node[644].veinsmobility 	totalDistance 	791.42123158209
scalar RSUExampleScenario.node[644].veinsmobility 	totalCO2Emission 	199.39979438434
scalar RSUExampleScenario.node[645].veinsmobility 	startTime 	1935.1
scalar RSUExampleScenario.node[645].veinsmobility 	totalTime 	64.8
scalar RSUExampleScenario.node[645].veinsmobility 	stopTime 	2000
scalar RSUExampleScenario.node[645].veinsmobility 	minSpeed 	0.25271475799312
scalar RSUExampleScenario.node[645].veinsmobility 	maxSpeed 	13.999590761485
scalar RSUExampleScenario.node[645].veinsmobility 	totalDistance 	748.54461060453
scalar RSUExampleScenario.node[645].veinsmobility 	totalCO2Emission 	194.03806534672
scalar RSUExampleScenario.node[646].veinsmobility 	startTime 	1938.1
scalar RSUExampleScenario.node[646].veinsmobility 	totalTime 	61.8
scalar RSUExampleScenario.node[646].veinsmobility 	stopTime 	2000
scalar RSUExampleScenario.node[646].veinsmobility 	minSpeed 	0.25465728391567
scalar RSUExampleScenario.node[646].veinsmobility 	maxSpeed 	13.998549607166
scalar RSUExampleScenario.node[646].veinsmobility 	totalDistance 	709.03273874547
scalar RSUExampleScenario.node[646].veinsmobility 	totalCO2Emission 	185.25385293675
scalar RSUExampleScenario.node[647].veinsmobility 	startTime 	1941.1
scalar RSUExampleScenario.node[647].veinsmobility 	totalTime 	58.8
scalar RSUExampleScenario.node[647].veinsmobility 	stopTime 	2000
scalar RSUExampleScenario.node[647].veinsmobility 	minSpeed 	0.25980649068742
scalar RSUExampleScenario.node[647].veinsmobility 	maxSpeed 	13.999895462163
scalar RSUExampleScenario.node[647].veinsmobility 	totalDistance 	664.19946676478
scalar RSUExampleScenario.node[647].veinsmobility 	totalCO2Emission 	177.74719270166
scalar RSUExampleScenario.node[648].veinsmobility 	startTime 	1944.1
scalar RSUExampleScenario.node[648].veinsmobility 	totalTime 	55.8
scalar RSUExampleScenario.node[648].veinsmobility 	stopTime 	2000
scalar RSUExampleScenario.node[648].veinsmobility 	minSpeed 	0.25451717886748
scalar RSUExampleScenario.node[648].veinsmobility 	maxSpeed 	13.99979215466
scalar RSUExampleScenario.node[648].veinsmobility 	totalDistance 	622.0050284252
scalar RSUExampleScenario.node[648].veinsmobility 	totalCO2Emission 	170.62572363467
scalar RSUExampleScenario.node[649].veinsmobility 	startTime 	1947.1
scalar RSUExampleScenario.node[649].veinsmobility 	totalTime 	52.8
scalar RSUExampleScenario.node[649].veinsmobility 	stopTime 	2000
scalar RSUExampleScenario.node[649].veinsmobility 	minSpeed 	0.24788373275753
scalar RSUExampleScenario.node[649].veinsmobility 	maxSpeed 	13.999519267539
scalar RSUExampleScenario.node[649].veinsmobility 	totalDistance 	581.53288290444
scalar RSUExampleScenario.node[649].veinsmobility 	totalCO2Emission 	164.76898123909
scalar RSUExampleScenario.node[650].veinsmobility 	startTime 	1950.1
scalar RSUExampleScenario.node[650].veinsmobility 	totalTime 	49.8
scalar RSUExampleScenario.node[650].veinsmobility 	stopTime 	2000
scalar RSUExampleScenario.node[650].veinsmobility 	minSpeed 	0.25233941262448
scalar RSUExampleScenario.node[650].veinsmobility 	maxSpeed 	13.999140542813
scalar RSUExampleScenario.node[650].veinsmobility 	totalDistance 	539.50459546236
scalar RSUExampleScenario.node[650].veinsmobility 	totalCO2Emission 	158.2818480206
scalar RSUExampleScenario.node[651].veinsmobility 	startTime 	1953.1
scalar RSUExampleScenario.node[651].veinsmobility 	totalTime 	46.8
scalar RSUExampleScenario.node[651].veinsmobility 	stopTime 	2000
scalar RSUExampleScenario.node[651].veinsmobility 	minSpeed 	0.25213049141457
scalar RSUExampleScenario.node[651].veinsmobility 	maxSpeed 	13.999787506345
scalar RSUExampleScenario.node[651].veinsmobility 	totalDistance 	498.08216305935
scalar RSUExampleScenario.node[651].veinsmobility 	totalCO2Emission 	150.51220166517
scalar RSUExampleScenario.node[652].veinsmobility 	startTime 	1956.1
scalar RSUExampleScenario.node[652].veinsmobility 	totalTime 	43.8
scalar RSUExampleScenario.node[652].veinsmobility 	stopTime 	2000
scalar RSUExampleScenario.node[652].veinsmobility 	minSpeed 	0.25964048863994
scalar RSUExampleScenario.node[652].veinsmobility 	maxSpeed 	13.999628101885
scalar RSUExampleScenario.node[652].veinsmobility 	totalDistance 	454.78839079523
scalar RSUExampleScenario.node[652].veinsmobility 	totalCO2Emission 	144.01927760371
scalar RSUExampleScenario.node[653].veinsmobility 	startTime 	1959.1
scalar RSUExampleScenario.node[653].veinsmobility 	totalTime 	40.8
scalar RSUExampleScenario.node[653].veinsmobility 	stopTime 	2000
scalar RSUExampleScenario.node[653].veinsmobility 	minSpeed 	0.24708110032603
scalar RSUExampleScenario.node[653].veinsmobility 	maxSpeed 	13.999734473599
scalar RSUExampleScenario.node[653].veinsmobility 	totalDistance 	412.67555633688
scalar RSUExampleScenario.node[653].veinsmobility 	totalCO2Emission 	136.57944784798
scalar RSUExampleScenario.node[654].veinsmobility 	startTime 	1962.1
scalar RSUExampleScenario.node[654].veinsmobility 	totalTime 	37.8
scalar RSUExampleScenario.node[654].veinsmobility 	stopTime 	2000
scalar RSUExampleScenario.node[654].veinsmobility 	minSpeed 	0.25586109969555
scalar RSUExampleScenario.node[654].veinsmobility 	maxSpeed 	13.9994205384
scalar RSUExampleScenario.node[654].veinsmobility 	totalDistance 	369.32312374529
scalar RSUExampleScenario.node[654].veinsmobility 	totalCO2Emission 	127.89494253171
scalar RSUExampleScenario.node[655].veinsmobility 	startTime 	1965.1
scalar RSUExampleScenario.node[655].veinsmobility 	totalTime 	34.8
scalar RSUExampleScenario.node[655].veinsmobility 	stopTime 	2000
scalar RSUExampleScenario.node[655].veinsmobility 	minSpeed 	0.25221458756574
scalar RSUExampleScenario.node[655].veinsmobility 	maxSpeed 	13.992937033628
scalar RSUExampleScenario.node[655].veinsmobility 	totalDistance 	327.56513222137
scalar RSUExampleScenario.node[655].veinsmobility 	totalCO2Emission 	122.06819661491
scalar RSUExampleScenario.node[656].veinsmobility 	startTime 	1968.1
scalar RSUExampleScenario.node[656].veinsmobility 	totalTime 	31.8
scalar RSUExampleScenario.node[656].veinsmobility 	stopTime 	2000
scalar RSUExampleScenario.node[656].veinsmobility 	minSpeed 	0.25073261173093
scalar RSUExampleScenario.node[656].veinsmobility 	maxSpeed 	13.991960582088
scalar RSUExampleScenario.node[656].veinsmobility 	totalDistance 	289.34581231074
scalar RSUExampleScenario.node[656].veinsmobility 	totalCO2Emission 	115.53625872988
scalar RSUExampleScenario.node[657].veinsmobility 	startTime 	1971.1
scalar RSUExampleScenario.node[657].veinsmobility 	totalTime 	28.8
scalar RSUExampleScenario.node[657].veinsmobility 	stopTime 	2000
scalar RSUExampleScenario.node[657].veinsmobility 	minSpeed 	0.24866412669607
scalar RSUExampleScenario.node[657].veinsmobility 	maxSpeed 	13.883363492538
scalar RSUExampleScenario.node[657].veinsmobility 	totalDistance 	249.48306670159
scalar RSUExampleScenario.node[657].veinsmobility 	totalCO2Emission 	99.23388175567
scalar RSUExampleScenario.node[658].veinsmobility 	startTime 	1974.1
scalar RSUExampleScenario.node[658].veinsmobility 	totalTime 	25.8
scalar RSUExampleScenario.node[658].veinsmobility 	stopTime 	2000
scalar RSUExampleScenario.node[658].veinsmobility 	minSpeed 	0.2540716800401
scalar RSUExampleScenario.node[658].veinsmobility 	maxSpeed 	13.889522017566
scalar RSUExampleScenario.node[658].veinsmobility 	totalDistance 	226.06552077105
scalar RSUExampleScenario.node[658].veinsmobility 	totalCO2Emission 	83.203987498471
scalar RSUExampleScenario.node[659].veinsmobility 	startTime 	1977.1
scalar RSUExampleScenario.node[659].veinsmobility 	totalTime 	22.8
scalar RSUExampleScenario.node[659].veinsmobility 	stopTime 	2000
scalar RSUExampleScenario.node[659].veinsmobility 	minSpeed 	0.24854377732775
scalar RSUExampleScenario.node[659].veinsmobility 	maxSpeed 	13.887932256013
scalar RSUExampleScenario.node[659].veinsmobility 	totalDistance 	208.93311372966
scalar RSUExampleScenario.node[659].veinsmobility 	totalCO2Emission 	78.228050100203
scalar RSUExampleScenario.node[660].veinsmobility 	startTime 	1980.1
scalar RSUExampleScenario.node[660].veinsmobility 	totalTime 	19.8
scalar RSUExampleScenario.node[660].veinsmobility 	stopTime 	2000
scalar RSUExampleScenario.node[660].veinsmobility 	minSpeed 	0.25631402057759
scalar RSUExampleScenario.node[660].veinsmobility 	maxSpeed 	13.882533126213
scalar RSUExampleScenario.node[660].veinsmobility 	totalDistance 	174.38002478784
scalar RSUExampleScenario.node[660].veinsmobility 	totalCO2Emission 	75.618184339224
scalar RSUExampleScenario.node[661].veinsmobility 	startTime 	1983.1
scalar RSUExampleScenario.node[661].veinsmobility 	totalTime 	16.8
scalar RSUExampleScenario.node[661].veinsmobility 	stopTime 	2000
scalar RSUExampleScenario.node[661].veinsmobility 	minSpeed 	0.25936776640383
scalar RSUExampleScenario.node[661].veinsmobility 	maxSpeed 	13.885758777515
scalar RSUExampleScenario.node[661].veinsmobility 	totalDistance 	138.21303742297
scalar RSUExampleScenario.node[661].veinsmobility 	totalCO2Emission 	58.926952131309
scalar RSUExampleScenario.node[662].veinsmobility 	startTime 	1986.1
scalar RSUExampleScenario.node[662].veinsmobility 	totalTime 	13.8
scalar RSUExampleScenario.node[662].veinsmobility 	stopTime 	2000
scalar RSUExampleScenario.node[662].veinsmobility 	minSpeed 	0.25359396036295
scalar RSUExampleScenario.node[662].veinsmobility 	maxSpeed 	13.885608186729
scalar RSUExampleScenario.node[662].veinsmobility 	totalDistance 	116.72576296123
scalar RSUExampleScenario.node[662].veinsmobility 	totalCO2Emission 	42.875738839583
scalar RSUExampleScenario.node[663].veinsmobility 	startTime 	1989.1
scalar RSUExampleScenario.node[663].veinsmobility 	totalTime 	10.8
scalar RSUExampleScenario.node[663].veinsmobility 	stopTime 	2000
scalar RSUExampleScenario.node[663].veinsmobility 	minSpeed 	0.25730130578252
scalar RSUExampleScenario.node[663].veinsmobility 	maxSpeed 	13.87872552044
scalar RSUExampleScenario.node[663].veinsmobility 	totalDistance 	96.350878192137
scalar RSUExampleScenario.node[663].veinsmobility 	totalCO2Emission 	39.576029398296
scalar RSUExampleScenario.node[664].veinsmobility 	startTime 	1992.1
scalar RSUExampleScenario.node[664].veinsmobility 	totalTime 	7.8
scalar RSUExampleScenario.node[664].veinsmobility 	stopTime 	2000
scalar RSUExampleScenario.node[664].veinsmobility 	minSpeed 	0.25474192486331
scalar RSUExampleScenario.node[664].veinsmobility 	maxSpeed 	13.854659065516
scalar RSUExampleScenario.node[664].veinsmobility 	totalDistance 	59.601328293573
scalar RSUExampleScenario.node[664].veinsmobility 	totalCO2Emission 	35.401919499143
scalar RSUExampleScenario.node[665].veinsmobility 	startTime 	1995.1
scalar RSUExampleScenario.node[665].veinsmobility 	totalTime 	4.8
scalar RSUExampleScenario.node[665].veinsmobility 	stopTime 	2000
scalar RSUExampleScenario.node[665].veinsmobility 	minSpeed 	0.25537973167002
scalar RSUExampleScenario.node[665].veinsmobility 	maxSpeed 	9.701980583823
scalar RSUExampleScenario.node[665].veinsmobility 	totalDistance 	24.896061488668
scalar RSUExampleScenario.node[665].veinsmobility 	totalCO2Emission 	18.103264199565
scalar RSUExampleScenario.node[666].veinsmobility 	startTime 	1998.1
scalar RSUExampleScenario.node[666].veinsmobility 	totalTime 	1.8
scalar RSUExampleScenario.node[666].veinsmobility 	stopTime 	2000
scalar RSUExampleScenario.node[666].veinsmobility 	minSpeed 	0.25464945260459
scalar RSUExampleScenario.node[666].veinsmobility 	maxSpeed 	3.6855010210215
scalar RSUExampleScenario.node[666].veinsmobility 	totalDistance 	3.7107028385563
scalar RSUExampleScenario.node[666].veinsmobility 	totalCO2Emission 	3.7826548386428
