version 2
run statistic1-600-20150314-05:53:04-29776
attr c 25
attr configname statistic1
attr datetime 20150314-05:53:04
attr experiment statistic1
attr inifile omnetpp.ini
attr iterationvars "$p=1/20, $c=25"
attr iterationvars2 "$p=1/20, $c=25, $repetition=0"
attr measurement "$p=1/20, $c=25"
attr network RSUExampleScenario
attr p 1/20
attr processid 29776
attr repetition 0
attr replication #0
attr resultdir results
attr runnumber 600
attr seedset 600

scalar . 	c 	25
scalar RSUExampleScenario.rsu[0].appl 	NumberofCH 	7
scalar RSUExampleScenario.rsu[0].appl 	NumberofON 	82
scalar RSUExampleScenario.rsu[0].appl 	NumberofFN 	11
scalar RSUExampleScenario.rsu[0].appl 	meanClusterNodes 	7
scalar RSUExampleScenario.rsu[0].appl 	varClusterNodes 	2.6457513110646
scalar RSUExampleScenario.rsu[0].appl 	sumCHutility 	253.56927770722
scalar RSUExampleScenario.rsu[0].appl 	meanCHutility 	7
scalar RSUExampleScenario.rsu[0].appl 	varCHutility 	2.6457513110646
scalar RSUExampleScenario.rsu[0].appl 	sumDiffCHutility 	-17.024258043518
scalar RSUExampleScenario.rsu[0].appl 	meanDiffCHutility 	7
scalar RSUExampleScenario.rsu[0].appl 	varDiffCHutility 	2.6457513110646
scalar RSUExampleScenario.rsu[0].appl 	expectedCHutility 	236.5450196637
scalar RSUExampleScenario.rsu[0].appl 	meanExpectedCHutility 	7
scalar RSUExampleScenario.rsu[0].appl 	varExpectedCHutility 	2.6457513110646
