version 2
run statisticLeach-91-20150323-02:45:49-2612
attr c 33
attr configname statisticLeach
attr datetime 20150323-02:45:49
attr experiment statisticLeach
attr inifile omnetpp.ini
attr iterationvars "$p=1/25, $c=33"
attr iterationvars2 "$p=1/25, $c=33, $repetition=1"
attr measurement "$p=1/25, $c=33"
attr network RSUExampleScenario
attr p 1/25
attr processid 2612
attr repetition 1
attr replication #1
attr resultdir results
attr runnumber 91
attr seedset 91

scalar . 	c 	33
scalar RSUExampleScenario.node[0].appl 	meanClusterNodes 	5.5
scalar RSUExampleScenario.node[0].appl 	meanClusterHeadUtility 	17.070112412436
scalar RSUExampleScenario.node[0].appl 	NumberofCH 	0.054054054054054
scalar RSUExampleScenario.node[0].appl 	NumberofON 	0.10810810810811
scalar RSUExampleScenario.node[0].appl 	NumberofFN 	0.83783783783784
scalar RSUExampleScenario.node[0].veinsmobility 	startTime 	0.1
scalar RSUExampleScenario.node[0].veinsmobility 	totalTime 	449.9
scalar RSUExampleScenario.node[0].veinsmobility 	stopTime 	450
scalar RSUExampleScenario.node[0].veinsmobility 	minSpeed 	0
scalar RSUExampleScenario.node[0].veinsmobility 	maxSpeed 	13.999915173068
scalar RSUExampleScenario.node[0].veinsmobility 	totalDistance 	3135.1906638451
scalar RSUExampleScenario.node[0].veinsmobility 	totalCO2Emission 	837.82744408649
scalar RSUExampleScenario.node[1].appl 	meanClusterNodes 	4
scalar RSUExampleScenario.node[1].appl 	meanClusterHeadUtility 	17.43038029898
scalar RSUExampleScenario.node[1].appl 	NumberofCH 	0.054054054054054
scalar RSUExampleScenario.node[1].appl 	NumberofON 	0.10810810810811
scalar RSUExampleScenario.node[1].appl 	NumberofFN 	0.83783783783784
scalar RSUExampleScenario.node[1].veinsmobility 	startTime 	2.5
scalar RSUExampleScenario.node[1].veinsmobility 	totalTime 	447.5
scalar RSUExampleScenario.node[1].veinsmobility 	stopTime 	450
scalar RSUExampleScenario.node[1].veinsmobility 	minSpeed 	0
scalar RSUExampleScenario.node[1].veinsmobility 	maxSpeed 	13.99978906106
scalar RSUExampleScenario.node[1].veinsmobility 	totalDistance 	3081.5822794022
scalar RSUExampleScenario.node[1].veinsmobility 	totalCO2Emission 	827.34908213769
scalar RSUExampleScenario.node[10].appl 	meanClusterNodes 	0
scalar RSUExampleScenario.node[10].appl 	meanClusterHeadUtility 	0
scalar RSUExampleScenario.node[10].appl 	NumberofCH 	0
scalar RSUExampleScenario.node[10].appl 	NumberofON 	0.32432432432432
scalar RSUExampleScenario.node[10].appl 	NumberofFN 	0.67567567567568
scalar RSUExampleScenario.node[10].veinsmobility 	startTime 	24.2
scalar RSUExampleScenario.node[10].veinsmobility 	totalTime 	425.8
scalar RSUExampleScenario.node[10].veinsmobility 	stopTime 	450
scalar RSUExampleScenario.node[10].veinsmobility 	minSpeed 	0
scalar RSUExampleScenario.node[10].veinsmobility 	maxSpeed 	13.999829934037
scalar RSUExampleScenario.node[10].veinsmobility 	totalDistance 	2793.9137845817
scalar RSUExampleScenario.node[10].veinsmobility 	totalCO2Emission 	757.46214723938
scalar RSUExampleScenario.node[11].appl 	meanClusterNodes 	8.5
scalar RSUExampleScenario.node[11].appl 	meanClusterHeadUtility 	18.276066132362
scalar RSUExampleScenario.node[11].appl 	NumberofCH 	0.054054054054054
scalar RSUExampleScenario.node[11].appl 	NumberofON 	0.16216216216216
scalar RSUExampleScenario.node[11].appl 	NumberofFN 	0.78378378378378
scalar RSUExampleScenario.node[11].veinsmobility 	startTime 	26.6
scalar RSUExampleScenario.node[11].veinsmobility 	totalTime 	423.4
scalar RSUExampleScenario.node[11].veinsmobility 	stopTime 	450
scalar RSUExampleScenario.node[11].veinsmobility 	minSpeed 	0
scalar RSUExampleScenario.node[11].veinsmobility 	maxSpeed 	13.999891452442
scalar RSUExampleScenario.node[11].veinsmobility 	totalDistance 	2752.7492045742
scalar RSUExampleScenario.node[11].veinsmobility 	totalCO2Emission 	749.53385565558
scalar RSUExampleScenario.node[12].appl 	meanClusterNodes 	4
scalar RSUExampleScenario.node[12].appl 	meanClusterHeadUtility 	15.29016514032
scalar RSUExampleScenario.node[12].appl 	NumberofCH 	0.054054054054054
scalar RSUExampleScenario.node[12].appl 	NumberofON 	0.37837837837838
scalar RSUExampleScenario.node[12].appl 	NumberofFN 	0.56756756756757
scalar RSUExampleScenario.node[12].veinsmobility 	startTime 	29
scalar RSUExampleScenario.node[12].veinsmobility 	totalTime 	421
scalar RSUExampleScenario.node[12].veinsmobility 	stopTime 	450
scalar RSUExampleScenario.node[12].veinsmobility 	minSpeed 	0
scalar RSUExampleScenario.node[12].veinsmobility 	maxSpeed 	13.999997169338
scalar RSUExampleScenario.node[12].veinsmobility 	totalDistance 	2722.6158786071
scalar RSUExampleScenario.node[12].veinsmobility 	totalCO2Emission 	749.7111665028
scalar RSUExampleScenario.node[13].appl 	meanClusterNodes 	6.5
scalar RSUExampleScenario.node[13].appl 	meanClusterHeadUtility 	16.424542295819
scalar RSUExampleScenario.node[13].appl 	NumberofCH 	0.054054054054054
scalar RSUExampleScenario.node[13].appl 	NumberofON 	0.2972972972973
scalar RSUExampleScenario.node[13].appl 	NumberofFN 	0.64864864864865
scalar RSUExampleScenario.node[13].veinsmobility 	startTime 	31.4
scalar RSUExampleScenario.node[13].veinsmobility 	totalTime 	418.6
scalar RSUExampleScenario.node[13].veinsmobility 	stopTime 	450
scalar RSUExampleScenario.node[13].veinsmobility 	minSpeed 	0
scalar RSUExampleScenario.node[13].veinsmobility 	maxSpeed 	13.999972270562
scalar RSUExampleScenario.node[13].veinsmobility 	totalDistance 	2681.1791117958
scalar RSUExampleScenario.node[13].veinsmobility 	totalCO2Emission 	739.4879938932
scalar RSUExampleScenario.node[14].appl 	meanClusterNodes 	0
scalar RSUExampleScenario.node[14].appl 	meanClusterHeadUtility 	0
scalar RSUExampleScenario.node[14].appl 	NumberofCH 	0.054054054054054
scalar RSUExampleScenario.node[14].appl 	NumberofON 	0
scalar RSUExampleScenario.node[14].appl 	NumberofFN 	0.94594594594595
scalar RSUExampleScenario.node[14].veinsmobility 	startTime 	33.8
scalar RSUExampleScenario.node[14].veinsmobility 	totalTime 	416.2
scalar RSUExampleScenario.node[14].veinsmobility 	stopTime 	450
scalar RSUExampleScenario.node[14].veinsmobility 	minSpeed 	0
scalar RSUExampleScenario.node[14].veinsmobility 	maxSpeed 	13.999840139644
scalar RSUExampleScenario.node[14].veinsmobility 	totalDistance 	2654.1985999847
scalar RSUExampleScenario.node[14].veinsmobility 	totalCO2Emission 	735.82461597698
scalar RSUExampleScenario.node[15].appl 	meanClusterNodes 	0
scalar RSUExampleScenario.node[15].appl 	meanClusterHeadUtility 	0
scalar RSUExampleScenario.node[15].appl 	NumberofCH 	0
scalar RSUExampleScenario.node[15].appl 	NumberofON 	0.24324324324324
scalar RSUExampleScenario.node[15].appl 	NumberofFN 	0.75675675675676
scalar RSUExampleScenario.node[15].veinsmobility 	startTime 	36.2
scalar RSUExampleScenario.node[15].veinsmobility 	totalTime 	413.8
scalar RSUExampleScenario.node[15].veinsmobility 	stopTime 	450
scalar RSUExampleScenario.node[15].veinsmobility 	minSpeed 	0
scalar RSUExampleScenario.node[15].veinsmobility 	maxSpeed 	13.999921331634
scalar RSUExampleScenario.node[15].veinsmobility 	totalDistance 	2613.9314534541
scalar RSUExampleScenario.node[15].veinsmobility 	totalCO2Emission 	729.37254023227
scalar RSUExampleScenario.node[16].appl 	meanClusterNodes 	4
scalar RSUExampleScenario.node[16].appl 	meanClusterHeadUtility 	16.799706889044
scalar RSUExampleScenario.node[16].appl 	NumberofCH 	0.054054054054054
scalar RSUExampleScenario.node[16].appl 	NumberofON 	0.32432432432432
scalar RSUExampleScenario.node[16].appl 	NumberofFN 	0.62162162162162
scalar RSUExampleScenario.node[16].veinsmobility 	startTime 	38.6
scalar RSUExampleScenario.node[16].veinsmobility 	totalTime 	411.4
scalar RSUExampleScenario.node[16].veinsmobility 	stopTime 	450
scalar RSUExampleScenario.node[16].veinsmobility 	minSpeed 	0
scalar RSUExampleScenario.node[16].veinsmobility 	maxSpeed 	13.999933233187
scalar RSUExampleScenario.node[16].veinsmobility 	totalDistance 	2583.0631191816
scalar RSUExampleScenario.node[16].veinsmobility 	totalCO2Emission 	723.4033672025
scalar RSUExampleScenario.node[17].appl 	meanClusterNodes 	0
scalar RSUExampleScenario.node[17].appl 	meanClusterHeadUtility 	0
scalar RSUExampleScenario.node[17].appl 	NumberofCH 	0
scalar RSUExampleScenario.node[17].appl 	NumberofON 	0.2972972972973
scalar RSUExampleScenario.node[17].appl 	NumberofFN 	0.7027027027027
scalar RSUExampleScenario.node[17].veinsmobility 	startTime 	41
scalar RSUExampleScenario.node[17].veinsmobility 	totalTime 	409
scalar RSUExampleScenario.node[17].veinsmobility 	stopTime 	450
scalar RSUExampleScenario.node[17].veinsmobility 	minSpeed 	0
scalar RSUExampleScenario.node[17].veinsmobility 	maxSpeed 	13.999971202465
scalar RSUExampleScenario.node[17].veinsmobility 	totalDistance 	2538.5914005667
scalar RSUExampleScenario.node[17].veinsmobility 	totalCO2Emission 	717.90207908548
scalar RSUExampleScenario.node[18].appl 	meanClusterNodes 	0
scalar RSUExampleScenario.node[18].appl 	meanClusterHeadUtility 	0
scalar RSUExampleScenario.node[18].appl 	NumberofCH 	0
scalar RSUExampleScenario.node[18].appl 	NumberofON 	0.32432432432432
scalar RSUExampleScenario.node[18].appl 	NumberofFN 	0.67567567567568
scalar RSUExampleScenario.node[18].veinsmobility 	startTime 	43.4
scalar RSUExampleScenario.node[18].veinsmobility 	totalTime 	406.6
scalar RSUExampleScenario.node[18].veinsmobility 	stopTime 	450
scalar RSUExampleScenario.node[18].veinsmobility 	minSpeed 	0
scalar RSUExampleScenario.node[18].veinsmobility 	maxSpeed 	13.999913488503
scalar RSUExampleScenario.node[18].veinsmobility 	totalDistance 	2509.4122969989
scalar RSUExampleScenario.node[18].veinsmobility 	totalCO2Emission 	714.55800724631
scalar RSUExampleScenario.node[19].appl 	meanClusterNodes 	0
scalar RSUExampleScenario.node[19].appl 	meanClusterHeadUtility 	0
scalar RSUExampleScenario.node[19].appl 	NumberofCH 	0
scalar RSUExampleScenario.node[19].appl 	NumberofON 	0.35135135135135
scalar RSUExampleScenario.node[19].appl 	NumberofFN 	0.64864864864865
scalar RSUExampleScenario.node[19].veinsmobility 	startTime 	45.8
scalar RSUExampleScenario.node[19].veinsmobility 	totalTime 	404.2
scalar RSUExampleScenario.node[19].veinsmobility 	stopTime 	450
scalar RSUExampleScenario.node[19].veinsmobility 	minSpeed 	0
scalar RSUExampleScenario.node[19].veinsmobility 	maxSpeed 	13.999816429946
scalar RSUExampleScenario.node[19].veinsmobility 	totalDistance 	2472.3020361394
scalar RSUExampleScenario.node[19].veinsmobility 	totalCO2Emission 	708.10375067745
scalar RSUExampleScenario.node[2].appl 	meanClusterNodes 	6
scalar RSUExampleScenario.node[2].appl 	meanClusterHeadUtility 	18.499639137652
scalar RSUExampleScenario.node[2].appl 	NumberofCH 	0.054054054054054
scalar RSUExampleScenario.node[2].appl 	NumberofON 	0.10810810810811
scalar RSUExampleScenario.node[2].appl 	NumberofFN 	0.83783783783784
scalar RSUExampleScenario.node[2].veinsmobility 	startTime 	4.9
scalar RSUExampleScenario.node[2].veinsmobility 	totalTime 	445.1
scalar RSUExampleScenario.node[2].veinsmobility 	stopTime 	450
scalar RSUExampleScenario.node[2].veinsmobility 	minSpeed 	0
scalar RSUExampleScenario.node[2].veinsmobility 	maxSpeed 	13.999884885622
scalar RSUExampleScenario.node[2].veinsmobility 	totalDistance 	3039.9824563758
scalar RSUExampleScenario.node[2].veinsmobility 	totalCO2Emission 	823.51708446808
scalar RSUExampleScenario.node[20].appl 	meanClusterNodes 	3.5
scalar RSUExampleScenario.node[20].appl 	meanClusterHeadUtility 	17.206591486046
scalar RSUExampleScenario.node[20].appl 	NumberofCH 	0.054054054054054
scalar RSUExampleScenario.node[20].appl 	NumberofON 	0.48648648648649
scalar RSUExampleScenario.node[20].appl 	NumberofFN 	0.45945945945946
scalar RSUExampleScenario.node[20].veinsmobility 	startTime 	48.3
scalar RSUExampleScenario.node[20].veinsmobility 	totalTime 	401.7
scalar RSUExampleScenario.node[20].veinsmobility 	stopTime 	450
scalar RSUExampleScenario.node[20].veinsmobility 	minSpeed 	0
scalar RSUExampleScenario.node[20].veinsmobility 	maxSpeed 	13.999881490341
scalar RSUExampleScenario.node[20].veinsmobility 	totalDistance 	2441.5434487515
scalar RSUExampleScenario.node[20].veinsmobility 	totalCO2Emission 	699.18544801056
scalar RSUExampleScenario.node[21].appl 	meanClusterNodes 	0
scalar RSUExampleScenario.node[21].appl 	meanClusterHeadUtility 	0
scalar RSUExampleScenario.node[21].appl 	NumberofCH 	0
scalar RSUExampleScenario.node[21].appl 	NumberofON 	0.32432432432432
scalar RSUExampleScenario.node[21].appl 	NumberofFN 	0.67567567567568
scalar RSUExampleScenario.node[21].veinsmobility 	startTime 	50.7
scalar RSUExampleScenario.node[21].veinsmobility 	totalTime 	399.3
scalar RSUExampleScenario.node[21].veinsmobility 	stopTime 	450
scalar RSUExampleScenario.node[21].veinsmobility 	minSpeed 	0
scalar RSUExampleScenario.node[21].veinsmobility 	maxSpeed 	13.999802056588
scalar RSUExampleScenario.node[21].veinsmobility 	totalDistance 	2403.4912014875
scalar RSUExampleScenario.node[21].veinsmobility 	totalCO2Emission 	696.77798587111
scalar RSUExampleScenario.node[22].appl 	meanClusterNodes 	5
scalar RSUExampleScenario.node[22].appl 	meanClusterHeadUtility 	16.513647299312
scalar RSUExampleScenario.node[22].appl 	NumberofCH 	0.054054054054054
scalar RSUExampleScenario.node[22].appl 	NumberofON 	0.24324324324324
scalar RSUExampleScenario.node[22].appl 	NumberofFN 	0.7027027027027
scalar RSUExampleScenario.node[22].veinsmobility 	startTime 	53.1
scalar RSUExampleScenario.node[22].veinsmobility 	totalTime 	396.9
scalar RSUExampleScenario.node[22].veinsmobility 	stopTime 	450
scalar RSUExampleScenario.node[22].veinsmobility 	minSpeed 	0
scalar RSUExampleScenario.node[22].veinsmobility 	maxSpeed 	13.999741126471
scalar RSUExampleScenario.node[22].veinsmobility 	totalDistance 	2372.3064996712
scalar RSUExampleScenario.node[22].veinsmobility 	totalCO2Emission 	689.12049257191
scalar RSUExampleScenario.node[23].appl 	meanClusterNodes 	0
scalar RSUExampleScenario.node[23].appl 	meanClusterHeadUtility 	0
scalar RSUExampleScenario.node[23].appl 	NumberofCH 	0
scalar RSUExampleScenario.node[23].appl 	NumberofON 	0.24324324324324
scalar RSUExampleScenario.node[23].appl 	NumberofFN 	0.75675675675676
scalar RSUExampleScenario.node[23].veinsmobility 	startTime 	55.5
scalar RSUExampleScenario.node[23].veinsmobility 	totalTime 	394.5
scalar RSUExampleScenario.node[23].veinsmobility 	stopTime 	450
scalar RSUExampleScenario.node[23].veinsmobility 	minSpeed 	0
scalar RSUExampleScenario.node[23].veinsmobility 	maxSpeed 	13.999874776993
scalar RSUExampleScenario.node[23].veinsmobility 	totalDistance 	2335.6263446318
scalar RSUExampleScenario.node[23].veinsmobility 	totalCO2Emission 	684.74127611887
scalar RSUExampleScenario.node[24].appl 	meanClusterNodes 	8.25
scalar RSUExampleScenario.node[24].appl 	meanClusterHeadUtility 	8.6851269523727
scalar RSUExampleScenario.node[24].appl 	NumberofCH 	0.10810810810811
scalar RSUExampleScenario.node[24].appl 	NumberofON 	0.27027027027027
scalar RSUExampleScenario.node[24].appl 	NumberofFN 	0.62162162162162
scalar RSUExampleScenario.node[24].veinsmobility 	startTime 	57.9
scalar RSUExampleScenario.node[24].veinsmobility 	totalTime 	392.1
scalar RSUExampleScenario.node[24].veinsmobility 	stopTime 	450
scalar RSUExampleScenario.node[24].veinsmobility 	minSpeed 	0
scalar RSUExampleScenario.node[24].veinsmobility 	maxSpeed 	13.999904718113
scalar RSUExampleScenario.node[24].veinsmobility 	totalDistance 	2306.8981447141
scalar RSUExampleScenario.node[24].veinsmobility 	totalCO2Emission 	674.30599836134
scalar RSUExampleScenario.node[25].appl 	meanClusterNodes 	3
scalar RSUExampleScenario.node[25].appl 	meanClusterHeadUtility 	15.49922449381
scalar RSUExampleScenario.node[25].appl 	NumberofCH 	0.054054054054054
scalar RSUExampleScenario.node[25].appl 	NumberofON 	0.45945945945946
scalar RSUExampleScenario.node[25].appl 	NumberofFN 	0.48648648648649
scalar RSUExampleScenario.node[25].veinsmobility 	startTime 	60.3
scalar RSUExampleScenario.node[25].veinsmobility 	totalTime 	389.7
scalar RSUExampleScenario.node[25].veinsmobility 	stopTime 	450
scalar RSUExampleScenario.node[25].veinsmobility 	minSpeed 	0
scalar RSUExampleScenario.node[25].veinsmobility 	maxSpeed 	13.999994063631
scalar RSUExampleScenario.node[25].veinsmobility 	totalDistance 	2269.580225351
scalar RSUExampleScenario.node[25].veinsmobility 	totalCO2Emission 	673.87447612704
scalar RSUExampleScenario.node[26].appl 	meanClusterNodes 	3.5
scalar RSUExampleScenario.node[26].appl 	meanClusterHeadUtility 	20.662613694746
scalar RSUExampleScenario.node[26].appl 	NumberofCH 	0.054054054054054
scalar RSUExampleScenario.node[26].appl 	NumberofON 	0.37837837837838
scalar RSUExampleScenario.node[26].appl 	NumberofFN 	0.56756756756757
scalar RSUExampleScenario.node[26].veinsmobility 	startTime 	62.7
scalar RSUExampleScenario.node[26].veinsmobility 	totalTime 	387.3
scalar RSUExampleScenario.node[26].veinsmobility 	stopTime 	450
scalar RSUExampleScenario.node[26].veinsmobility 	minSpeed 	0
scalar RSUExampleScenario.node[26].veinsmobility 	maxSpeed 	13.999948883581
scalar RSUExampleScenario.node[26].veinsmobility 	totalDistance 	2237.1369572869
scalar RSUExampleScenario.node[26].veinsmobility 	totalCO2Emission 	667.49828348419
scalar RSUExampleScenario.node[27].appl 	meanClusterNodes 	3
scalar RSUExampleScenario.node[27].appl 	meanClusterHeadUtility 	17.015023410958
scalar RSUExampleScenario.node[27].appl 	NumberofCH 	0.054054054054054
scalar RSUExampleScenario.node[27].appl 	NumberofON 	0.35135135135135
scalar RSUExampleScenario.node[27].appl 	NumberofFN 	0.59459459459459
scalar RSUExampleScenario.node[27].veinsmobility 	startTime 	65.1
scalar RSUExampleScenario.node[27].veinsmobility 	totalTime 	384.9
scalar RSUExampleScenario.node[27].veinsmobility 	stopTime 	450
scalar RSUExampleScenario.node[27].veinsmobility 	minSpeed 	0
scalar RSUExampleScenario.node[27].veinsmobility 	maxSpeed 	13.99987840676
scalar RSUExampleScenario.node[27].veinsmobility 	totalDistance 	2200.4227679047
scalar RSUExampleScenario.node[27].veinsmobility 	totalCO2Emission 	662.49138751478
scalar RSUExampleScenario.node[28].appl 	meanClusterNodes 	4
scalar RSUExampleScenario.node[28].appl 	meanClusterHeadUtility 	19.921511818224
scalar RSUExampleScenario.node[28].appl 	NumberofCH 	0.054054054054054
scalar RSUExampleScenario.node[28].appl 	NumberofON 	0.37837837837838
scalar RSUExampleScenario.node[28].appl 	NumberofFN 	0.56756756756757
scalar RSUExampleScenario.node[28].veinsmobility 	startTime 	67.5
scalar RSUExampleScenario.node[28].veinsmobility 	totalTime 	382.5
scalar RSUExampleScenario.node[28].veinsmobility 	stopTime 	450
scalar RSUExampleScenario.node[28].veinsmobility 	minSpeed 	0
scalar RSUExampleScenario.node[28].veinsmobility 	maxSpeed 	13.999949592063
scalar RSUExampleScenario.node[28].veinsmobility 	totalDistance 	2168.9050113776
scalar RSUExampleScenario.node[28].veinsmobility 	totalCO2Emission 	655.25724431123
scalar RSUExampleScenario.node[29].appl 	meanClusterNodes 	6
scalar RSUExampleScenario.node[29].appl 	meanClusterHeadUtility 	16.879304032759
scalar RSUExampleScenario.node[29].appl 	NumberofCH 	0.054054054054054
scalar RSUExampleScenario.node[29].appl 	NumberofON 	0.21621621621622
scalar RSUExampleScenario.node[29].appl 	NumberofFN 	0.72972972972973
scalar RSUExampleScenario.node[29].veinsmobility 	startTime 	69.9
scalar RSUExampleScenario.node[29].veinsmobility 	totalTime 	380.1
scalar RSUExampleScenario.node[29].veinsmobility 	stopTime 	450
scalar RSUExampleScenario.node[29].veinsmobility 	minSpeed 	0
scalar RSUExampleScenario.node[29].veinsmobility 	maxSpeed 	13.999385189693
scalar RSUExampleScenario.node[29].veinsmobility 	totalDistance 	2133.6976386476
scalar RSUExampleScenario.node[29].veinsmobility 	totalCO2Emission 	649.47976866413
scalar RSUExampleScenario.node[3].appl 	meanClusterNodes 	4
scalar RSUExampleScenario.node[3].appl 	meanClusterHeadUtility 	19.447790452934
scalar RSUExampleScenario.node[3].appl 	NumberofCH 	0.054054054054054
scalar RSUExampleScenario.node[3].appl 	NumberofON 	0.2972972972973
scalar RSUExampleScenario.node[3].appl 	NumberofFN 	0.64864864864865
scalar RSUExampleScenario.node[3].veinsmobility 	startTime 	7.3
scalar RSUExampleScenario.node[3].veinsmobility 	totalTime 	442.7
scalar RSUExampleScenario.node[3].veinsmobility 	stopTime 	450
scalar RSUExampleScenario.node[3].veinsmobility 	minSpeed 	0
scalar RSUExampleScenario.node[3].veinsmobility 	maxSpeed 	13.99987952725
scalar RSUExampleScenario.node[3].veinsmobility 	totalDistance 	2992.1481926939
scalar RSUExampleScenario.node[3].veinsmobility 	totalCO2Emission 	813.05001471207
scalar RSUExampleScenario.node[30].appl 	meanClusterNodes 	6
scalar RSUExampleScenario.node[30].appl 	meanClusterHeadUtility 	18.095025552187
scalar RSUExampleScenario.node[30].appl 	NumberofCH 	0.054054054054054
scalar RSUExampleScenario.node[30].appl 	NumberofON 	0.37837837837838
scalar RSUExampleScenario.node[30].appl 	NumberofFN 	0.56756756756757
scalar RSUExampleScenario.node[30].veinsmobility 	startTime 	72.4
scalar RSUExampleScenario.node[30].veinsmobility 	totalTime 	377.6
scalar RSUExampleScenario.node[30].veinsmobility 	stopTime 	450
scalar RSUExampleScenario.node[30].veinsmobility 	minSpeed 	0
scalar RSUExampleScenario.node[30].veinsmobility 	maxSpeed 	13.99981377051
scalar RSUExampleScenario.node[30].veinsmobility 	totalDistance 	2102.7798452156
scalar RSUExampleScenario.node[30].veinsmobility 	totalCO2Emission 	643.0870739444
scalar RSUExampleScenario.node[31].appl 	meanClusterNodes 	9.5
scalar RSUExampleScenario.node[31].appl 	meanClusterHeadUtility 	16.127051417826
scalar RSUExampleScenario.node[31].appl 	NumberofCH 	0.054054054054054
scalar RSUExampleScenario.node[31].appl 	NumberofON 	0.35135135135135
scalar RSUExampleScenario.node[31].appl 	NumberofFN 	0.59459459459459
scalar RSUExampleScenario.node[31].veinsmobility 	startTime 	74.8
scalar RSUExampleScenario.node[31].veinsmobility 	totalTime 	375.2
scalar RSUExampleScenario.node[31].veinsmobility 	stopTime 	450
scalar RSUExampleScenario.node[31].veinsmobility 	minSpeed 	0
scalar RSUExampleScenario.node[31].veinsmobility 	maxSpeed 	13.99987720727
scalar RSUExampleScenario.node[31].veinsmobility 	totalDistance 	2065.3507704892
scalar RSUExampleScenario.node[31].veinsmobility 	totalCO2Emission 	637.28073755107
scalar RSUExampleScenario.node[32].appl 	meanClusterNodes 	6.5
scalar RSUExampleScenario.node[32].appl 	meanClusterHeadUtility 	17.127464020291
scalar RSUExampleScenario.node[32].appl 	NumberofCH 	0.054054054054054
scalar RSUExampleScenario.node[32].appl 	NumberofON 	0.16216216216216
scalar RSUExampleScenario.node[32].appl 	NumberofFN 	0.78378378378378
scalar RSUExampleScenario.node[32].veinsmobility 	startTime 	77.2
scalar RSUExampleScenario.node[32].veinsmobility 	totalTime 	372.8
scalar RSUExampleScenario.node[32].veinsmobility 	stopTime 	450
scalar RSUExampleScenario.node[32].veinsmobility 	minSpeed 	0
scalar RSUExampleScenario.node[32].veinsmobility 	maxSpeed 	13.999921038579
scalar RSUExampleScenario.node[32].veinsmobility 	totalDistance 	2032.1032302626
scalar RSUExampleScenario.node[32].veinsmobility 	totalCO2Emission 	631.66171245289
scalar RSUExampleScenario.node[33].appl 	meanClusterNodes 	7
scalar RSUExampleScenario.node[33].appl 	meanClusterHeadUtility 	17.383828306962
scalar RSUExampleScenario.node[33].appl 	NumberofCH 	0.054054054054054
scalar RSUExampleScenario.node[33].appl 	NumberofON 	0.45945945945946
scalar RSUExampleScenario.node[33].appl 	NumberofFN 	0.48648648648649
scalar RSUExampleScenario.node[33].veinsmobility 	startTime 	79.6
scalar RSUExampleScenario.node[33].veinsmobility 	totalTime 	370.4
scalar RSUExampleScenario.node[33].veinsmobility 	stopTime 	450
scalar RSUExampleScenario.node[33].veinsmobility 	minSpeed 	0
scalar RSUExampleScenario.node[33].veinsmobility 	maxSpeed 	13.99998938075
scalar RSUExampleScenario.node[33].veinsmobility 	totalDistance 	1999.2568143672
scalar RSUExampleScenario.node[33].veinsmobility 	totalCO2Emission 	627.29162246643
scalar RSUExampleScenario.node[34].appl 	meanClusterNodes 	0
scalar RSUExampleScenario.node[34].appl 	meanClusterHeadUtility 	0
scalar RSUExampleScenario.node[34].appl 	NumberofCH 	0
scalar RSUExampleScenario.node[34].appl 	NumberofON 	0.2972972972973
scalar RSUExampleScenario.node[34].appl 	NumberofFN 	0.7027027027027
scalar RSUExampleScenario.node[34].veinsmobility 	startTime 	82
scalar RSUExampleScenario.node[34].veinsmobility 	totalTime 	368
scalar RSUExampleScenario.node[34].veinsmobility 	stopTime 	450
scalar RSUExampleScenario.node[34].veinsmobility 	minSpeed 	0
scalar RSUExampleScenario.node[34].veinsmobility 	maxSpeed 	13.999950839407
scalar RSUExampleScenario.node[34].veinsmobility 	totalDistance 	1966.0539642706
scalar RSUExampleScenario.node[34].veinsmobility 	totalCO2Emission 	622.4218059227
scalar RSUExampleScenario.node[35].appl 	meanClusterNodes 	0
scalar RSUExampleScenario.node[35].appl 	meanClusterHeadUtility 	0
scalar RSUExampleScenario.node[35].appl 	NumberofCH 	0
scalar RSUExampleScenario.node[35].appl 	NumberofON 	0.51351351351351
scalar RSUExampleScenario.node[35].appl 	NumberofFN 	0.48648648648649
scalar RSUExampleScenario.node[35].veinsmobility 	startTime 	84.4
scalar RSUExampleScenario.node[35].veinsmobility 	totalTime 	365.6
scalar RSUExampleScenario.node[35].veinsmobility 	stopTime 	450
scalar RSUExampleScenario.node[35].veinsmobility 	minSpeed 	0
scalar RSUExampleScenario.node[35].veinsmobility 	maxSpeed 	13.999936808925
scalar RSUExampleScenario.node[35].veinsmobility 	totalDistance 	1929.6709181958
scalar RSUExampleScenario.node[35].veinsmobility 	totalCO2Emission 	617.71615921709
scalar RSUExampleScenario.node[36].appl 	meanClusterNodes 	3
scalar RSUExampleScenario.node[36].appl 	meanClusterHeadUtility 	18.151385923842
scalar RSUExampleScenario.node[36].appl 	NumberofCH 	0.054054054054054
scalar RSUExampleScenario.node[36].appl 	NumberofON 	0.48648648648649
scalar RSUExampleScenario.node[36].appl 	NumberofFN 	0.45945945945946
scalar RSUExampleScenario.node[36].veinsmobility 	startTime 	86.8
scalar RSUExampleScenario.node[36].veinsmobility 	totalTime 	363.2
scalar RSUExampleScenario.node[36].veinsmobility 	stopTime 	450
scalar RSUExampleScenario.node[36].veinsmobility 	minSpeed 	0
scalar RSUExampleScenario.node[36].veinsmobility 	maxSpeed 	13.999902918469
scalar RSUExampleScenario.node[36].veinsmobility 	totalDistance 	1898.6602772397
scalar RSUExampleScenario.node[36].veinsmobility 	totalCO2Emission 	611.16997955368
scalar RSUExampleScenario.node[37].appl 	meanClusterNodes 	0
scalar RSUExampleScenario.node[37].appl 	meanClusterHeadUtility 	0
scalar RSUExampleScenario.node[37].appl 	NumberofCH 	0
scalar RSUExampleScenario.node[37].appl 	NumberofON 	0.21621621621622
scalar RSUExampleScenario.node[37].appl 	NumberofFN 	0.78378378378378
scalar RSUExampleScenario.node[37].veinsmobility 	startTime 	89.2
scalar RSUExampleScenario.node[37].veinsmobility 	totalTime 	360.8
scalar RSUExampleScenario.node[37].veinsmobility 	stopTime 	450
scalar RSUExampleScenario.node[37].veinsmobility 	minSpeed 	0
scalar RSUExampleScenario.node[37].veinsmobility 	maxSpeed 	13.99996682293
scalar RSUExampleScenario.node[37].veinsmobility 	totalDistance 	1863.8035641885
scalar RSUExampleScenario.node[37].veinsmobility 	totalCO2Emission 	607.3991477783
scalar RSUExampleScenario.node[38].appl 	meanClusterNodes 	4.5
scalar RSUExampleScenario.node[38].appl 	meanClusterHeadUtility 	18.822130781901
scalar RSUExampleScenario.node[38].appl 	NumberofCH 	0.054054054054054
scalar RSUExampleScenario.node[38].appl 	NumberofON 	0.51351351351351
scalar RSUExampleScenario.node[38].appl 	NumberofFN 	0.43243243243243
scalar RSUExampleScenario.node[38].veinsmobility 	startTime 	91.6
scalar RSUExampleScenario.node[38].veinsmobility 	totalTime 	358.4
scalar RSUExampleScenario.node[38].veinsmobility 	stopTime 	450
scalar RSUExampleScenario.node[38].veinsmobility 	minSpeed 	0
scalar RSUExampleScenario.node[38].veinsmobility 	maxSpeed 	13.99990747595
scalar RSUExampleScenario.node[38].veinsmobility 	totalDistance 	1829.8920374435
scalar RSUExampleScenario.node[38].veinsmobility 	totalCO2Emission 	599.8733549548
scalar RSUExampleScenario.node[39].appl 	meanClusterNodes 	6
scalar RSUExampleScenario.node[39].appl 	meanClusterHeadUtility 	16.310399992239
scalar RSUExampleScenario.node[39].appl 	NumberofCH 	0.054054054054054
scalar RSUExampleScenario.node[39].appl 	NumberofON 	0.2972972972973
scalar RSUExampleScenario.node[39].appl 	NumberofFN 	0.64864864864865
scalar RSUExampleScenario.node[39].veinsmobility 	startTime 	94
scalar RSUExampleScenario.node[39].veinsmobility 	totalTime 	356
scalar RSUExampleScenario.node[39].veinsmobility 	stopTime 	450
scalar RSUExampleScenario.node[39].veinsmobility 	minSpeed 	0
scalar RSUExampleScenario.node[39].veinsmobility 	maxSpeed 	13.999607962568
scalar RSUExampleScenario.node[39].veinsmobility 	totalDistance 	1798.3385871856
scalar RSUExampleScenario.node[39].veinsmobility 	totalCO2Emission 	591.92120345442
scalar RSUExampleScenario.node[4].appl 	meanClusterNodes 	4
scalar RSUExampleScenario.node[4].appl 	meanClusterHeadUtility 	20.665203056906
scalar RSUExampleScenario.node[4].appl 	NumberofCH 	0.054054054054054
scalar RSUExampleScenario.node[4].appl 	NumberofON 	0.2972972972973
scalar RSUExampleScenario.node[4].appl 	NumberofFN 	0.64864864864865
scalar RSUExampleScenario.node[4].veinsmobility 	startTime 	9.7
scalar RSUExampleScenario.node[4].veinsmobility 	totalTime 	440.3
scalar RSUExampleScenario.node[4].veinsmobility 	stopTime 	450
scalar RSUExampleScenario.node[4].veinsmobility 	minSpeed 	0
scalar RSUExampleScenario.node[4].veinsmobility 	maxSpeed 	13.99992993782
scalar RSUExampleScenario.node[4].veinsmobility 	totalDistance 	2948.8760447832
scalar RSUExampleScenario.node[4].veinsmobility 	totalCO2Emission 	795.67684007111
scalar RSUExampleScenario.node[40].appl 	meanClusterNodes 	0
scalar RSUExampleScenario.node[40].appl 	meanClusterHeadUtility 	0
scalar RSUExampleScenario.node[40].appl 	NumberofCH 	0
scalar RSUExampleScenario.node[40].appl 	NumberofON 	0.59459459459459
scalar RSUExampleScenario.node[40].appl 	NumberofFN 	0.40540540540541
scalar RSUExampleScenario.node[40].veinsmobility 	startTime 	96.5
scalar RSUExampleScenario.node[40].veinsmobility 	totalTime 	353.5
scalar RSUExampleScenario.node[40].veinsmobility 	stopTime 	450
scalar RSUExampleScenario.node[40].veinsmobility 	minSpeed 	0
scalar RSUExampleScenario.node[40].veinsmobility 	maxSpeed 	13.999992631199
scalar RSUExampleScenario.node[40].veinsmobility 	totalDistance 	1762.5583775889
scalar RSUExampleScenario.node[40].veinsmobility 	totalCO2Emission 	586.42906843965
scalar RSUExampleScenario.node[41].appl 	meanClusterNodes 	0
scalar RSUExampleScenario.node[41].appl 	meanClusterHeadUtility 	0
scalar RSUExampleScenario.node[41].appl 	NumberofCH 	0
scalar RSUExampleScenario.node[41].appl 	NumberofON 	0.27027027027027
scalar RSUExampleScenario.node[41].appl 	NumberofFN 	0.72972972972973
scalar RSUExampleScenario.node[41].veinsmobility 	startTime 	98.9
scalar RSUExampleScenario.node[41].veinsmobility 	totalTime 	351.1
scalar RSUExampleScenario.node[41].veinsmobility 	stopTime 	450
scalar RSUExampleScenario.node[41].veinsmobility 	minSpeed 	0
scalar RSUExampleScenario.node[41].veinsmobility 	maxSpeed 	13.999937368792
scalar RSUExampleScenario.node[41].veinsmobility 	totalDistance 	1730.446041986
scalar RSUExampleScenario.node[41].veinsmobility 	totalCO2Emission 	582.00168955172
scalar RSUExampleScenario.node[42].appl 	meanClusterNodes 	5.5
scalar RSUExampleScenario.node[42].appl 	meanClusterHeadUtility 	16.889400599561
scalar RSUExampleScenario.node[42].appl 	NumberofCH 	0.054054054054054
scalar RSUExampleScenario.node[42].appl 	NumberofON 	0.32432432432432
scalar RSUExampleScenario.node[42].appl 	NumberofFN 	0.62162162162162
scalar RSUExampleScenario.node[42].veinsmobility 	startTime 	101.3
scalar RSUExampleScenario.node[42].veinsmobility 	totalTime 	348.7
scalar RSUExampleScenario.node[42].veinsmobility 	stopTime 	450
scalar RSUExampleScenario.node[42].veinsmobility 	minSpeed 	0
scalar RSUExampleScenario.node[42].veinsmobility 	maxSpeed 	13.999954556527
scalar RSUExampleScenario.node[42].veinsmobility 	totalDistance 	1694.86882811
scalar RSUExampleScenario.node[42].veinsmobility 	totalCO2Emission 	574.42844224121
scalar RSUExampleScenario.node[43].appl 	meanClusterNodes 	12
scalar RSUExampleScenario.node[43].appl 	meanClusterHeadUtility 	18.010307397731
scalar RSUExampleScenario.node[43].appl 	NumberofCH 	0.054054054054054
scalar RSUExampleScenario.node[43].appl 	NumberofON 	0.21621621621622
scalar RSUExampleScenario.node[43].appl 	NumberofFN 	0.72972972972973
scalar RSUExampleScenario.node[43].veinsmobility 	startTime 	103.7
scalar RSUExampleScenario.node[43].veinsmobility 	totalTime 	346.3
scalar RSUExampleScenario.node[43].veinsmobility 	stopTime 	450
scalar RSUExampleScenario.node[43].veinsmobility 	minSpeed 	0
scalar RSUExampleScenario.node[43].veinsmobility 	maxSpeed 	13.99998578555
scalar RSUExampleScenario.node[43].veinsmobility 	totalDistance 	1662.3107796475
scalar RSUExampleScenario.node[43].veinsmobility 	totalCO2Emission 	570.53658962037
scalar RSUExampleScenario.node[44].appl 	meanClusterNodes 	9
scalar RSUExampleScenario.node[44].appl 	meanClusterHeadUtility 	17.812363585507
scalar RSUExampleScenario.node[44].appl 	NumberofCH 	0.054054054054054
scalar RSUExampleScenario.node[44].appl 	NumberofON 	0.2972972972973
scalar RSUExampleScenario.node[44].appl 	NumberofFN 	0.64864864864865
scalar RSUExampleScenario.node[44].veinsmobility 	startTime 	106.1
scalar RSUExampleScenario.node[44].veinsmobility 	totalTime 	343.9
scalar RSUExampleScenario.node[44].veinsmobility 	stopTime 	450
scalar RSUExampleScenario.node[44].veinsmobility 	minSpeed 	0
scalar RSUExampleScenario.node[44].veinsmobility 	maxSpeed 	13.999880904595
scalar RSUExampleScenario.node[44].veinsmobility 	totalDistance 	1628.7154748854
scalar RSUExampleScenario.node[44].veinsmobility 	totalCO2Emission 	563.50857718868
scalar RSUExampleScenario.node[45].appl 	meanClusterNodes 	6.5
scalar RSUExampleScenario.node[45].appl 	meanClusterHeadUtility 	17.777632690636
scalar RSUExampleScenario.node[45].appl 	NumberofCH 	0.054054054054054
scalar RSUExampleScenario.node[45].appl 	NumberofON 	0.27027027027027
scalar RSUExampleScenario.node[45].appl 	NumberofFN 	0.67567567567568
scalar RSUExampleScenario.node[45].veinsmobility 	startTime 	108.5
scalar RSUExampleScenario.node[45].veinsmobility 	totalTime 	341.5
scalar RSUExampleScenario.node[45].veinsmobility 	stopTime 	450
scalar RSUExampleScenario.node[45].veinsmobility 	minSpeed 	0
scalar RSUExampleScenario.node[45].veinsmobility 	maxSpeed 	13.999674504672
scalar RSUExampleScenario.node[45].veinsmobility 	totalDistance 	1594.65881256
scalar RSUExampleScenario.node[45].veinsmobility 	totalCO2Emission 	560.18245196863
scalar RSUExampleScenario.node[46].appl 	meanClusterNodes 	6.6666666666667
scalar RSUExampleScenario.node[46].appl 	meanClusterHeadUtility 	10.968836653429
scalar RSUExampleScenario.node[46].appl 	NumberofCH 	0.081081081081081
scalar RSUExampleScenario.node[46].appl 	NumberofON 	0.37837837837838
scalar RSUExampleScenario.node[46].appl 	NumberofFN 	0.54054054054054
scalar RSUExampleScenario.node[46].veinsmobility 	startTime 	110.9
scalar RSUExampleScenario.node[46].veinsmobility 	totalTime 	339.1
scalar RSUExampleScenario.node[46].veinsmobility 	stopTime 	450
scalar RSUExampleScenario.node[46].veinsmobility 	minSpeed 	0
scalar RSUExampleScenario.node[46].veinsmobility 	maxSpeed 	13.999750210166
scalar RSUExampleScenario.node[46].veinsmobility 	totalDistance 	1561.5838228033
scalar RSUExampleScenario.node[46].veinsmobility 	totalCO2Emission 	554.46208040014
scalar RSUExampleScenario.node[47].appl 	meanClusterNodes 	0
scalar RSUExampleScenario.node[47].appl 	meanClusterHeadUtility 	0
scalar RSUExampleScenario.node[47].appl 	NumberofCH 	0
scalar RSUExampleScenario.node[47].appl 	NumberofON 	0.081081081081081
scalar RSUExampleScenario.node[47].appl 	NumberofFN 	0.91891891891892
scalar RSUExampleScenario.node[47].veinsmobility 	startTime 	113.3
scalar RSUExampleScenario.node[47].veinsmobility 	totalTime 	336.7
scalar RSUExampleScenario.node[47].veinsmobility 	stopTime 	450
scalar RSUExampleScenario.node[47].veinsmobility 	minSpeed 	0
scalar RSUExampleScenario.node[47].veinsmobility 	maxSpeed 	13.998696539309
scalar RSUExampleScenario.node[47].veinsmobility 	totalDistance 	1528.525207827
scalar RSUExampleScenario.node[47].veinsmobility 	totalCO2Emission 	546.94525870414
scalar RSUExampleScenario.node[48].appl 	meanClusterNodes 	0
scalar RSUExampleScenario.node[48].appl 	meanClusterHeadUtility 	0
scalar RSUExampleScenario.node[48].appl 	NumberofCH 	0
scalar RSUExampleScenario.node[48].appl 	NumberofON 	0.48648648648649
scalar RSUExampleScenario.node[48].appl 	NumberofFN 	0.51351351351351
scalar RSUExampleScenario.node[48].veinsmobility 	startTime 	115.7
scalar RSUExampleScenario.node[48].veinsmobility 	totalTime 	334.3
scalar RSUExampleScenario.node[48].veinsmobility 	stopTime 	450
scalar RSUExampleScenario.node[48].veinsmobility 	minSpeed 	0
scalar RSUExampleScenario.node[48].veinsmobility 	maxSpeed 	13.999975339705
scalar RSUExampleScenario.node[48].veinsmobility 	totalDistance 	1493.2457536887
scalar RSUExampleScenario.node[48].veinsmobility 	totalCO2Emission 	541.13700125206
scalar RSUExampleScenario.node[49].appl 	meanClusterNodes 	0
scalar RSUExampleScenario.node[49].appl 	meanClusterHeadUtility 	0
scalar RSUExampleScenario.node[49].appl 	NumberofCH 	0.054054054054054
scalar RSUExampleScenario.node[49].appl 	NumberofON 	0.27027027027027
scalar RSUExampleScenario.node[49].appl 	NumberofFN 	0.67567567567568
scalar RSUExampleScenario.node[49].veinsmobility 	startTime 	118.1
scalar RSUExampleScenario.node[49].veinsmobility 	totalTime 	331.9
scalar RSUExampleScenario.node[49].veinsmobility 	stopTime 	450
scalar RSUExampleScenario.node[49].veinsmobility 	minSpeed 	0
scalar RSUExampleScenario.node[49].veinsmobility 	maxSpeed 	13.999998254566
scalar RSUExampleScenario.node[49].veinsmobility 	totalDistance 	1462.2144128721
scalar RSUExampleScenario.node[49].veinsmobility 	totalCO2Emission 	536.30682887902
scalar RSUExampleScenario.node[5].appl 	meanClusterNodes 	5
scalar RSUExampleScenario.node[5].appl 	meanClusterHeadUtility 	18.996507721861
scalar RSUExampleScenario.node[5].appl 	NumberofCH 	0.054054054054054
scalar RSUExampleScenario.node[5].appl 	NumberofON 	0.24324324324324
scalar RSUExampleScenario.node[5].appl 	NumberofFN 	0.7027027027027
scalar RSUExampleScenario.node[5].veinsmobility 	startTime 	12.1
scalar RSUExampleScenario.node[5].veinsmobility 	totalTime 	437.9
scalar RSUExampleScenario.node[5].veinsmobility 	stopTime 	450
scalar RSUExampleScenario.node[5].veinsmobility 	minSpeed 	0
scalar RSUExampleScenario.node[5].veinsmobility 	maxSpeed 	13.999967477596
scalar RSUExampleScenario.node[5].veinsmobility 	totalDistance 	2913.890877283
scalar RSUExampleScenario.node[5].veinsmobility 	totalCO2Emission 	782.20890063816
scalar RSUExampleScenario.node[50].appl 	meanClusterNodes 	6.5
scalar RSUExampleScenario.node[50].appl 	meanClusterHeadUtility 	16.93855537666
scalar RSUExampleScenario.node[50].appl 	NumberofCH 	0.054054054054054
scalar RSUExampleScenario.node[50].appl 	NumberofON 	0.2972972972973
scalar RSUExampleScenario.node[50].appl 	NumberofFN 	0.64864864864865
scalar RSUExampleScenario.node[50].veinsmobility 	startTime 	120.6
scalar RSUExampleScenario.node[50].veinsmobility 	totalTime 	329.4
scalar RSUExampleScenario.node[50].veinsmobility 	stopTime 	450
scalar RSUExampleScenario.node[50].veinsmobility 	minSpeed 	0
scalar RSUExampleScenario.node[50].veinsmobility 	maxSpeed 	13.999766834886
scalar RSUExampleScenario.node[50].veinsmobility 	totalDistance 	1428.6138825636
scalar RSUExampleScenario.node[50].veinsmobility 	totalCO2Emission 	533.26492678769
scalar RSUExampleScenario.node[51].appl 	meanClusterNodes 	0
scalar RSUExampleScenario.node[51].appl 	meanClusterHeadUtility 	0
scalar RSUExampleScenario.node[51].appl 	NumberofCH 	0
scalar RSUExampleScenario.node[51].appl 	NumberofON 	0.32432432432432
scalar RSUExampleScenario.node[51].appl 	NumberofFN 	0.67567567567568
scalar RSUExampleScenario.node[51].veinsmobility 	startTime 	123
scalar RSUExampleScenario.node[51].veinsmobility 	totalTime 	327
scalar RSUExampleScenario.node[51].veinsmobility 	stopTime 	450
scalar RSUExampleScenario.node[51].veinsmobility 	minSpeed 	0
scalar RSUExampleScenario.node[51].veinsmobility 	maxSpeed 	13.999952711996
scalar RSUExampleScenario.node[51].veinsmobility 	totalDistance 	1393.8772563108
scalar RSUExampleScenario.node[51].veinsmobility 	totalCO2Emission 	527.89484787156
scalar RSUExampleScenario.node[52].appl 	meanClusterNodes 	0
scalar RSUExampleScenario.node[52].appl 	meanClusterHeadUtility 	0
scalar RSUExampleScenario.node[52].appl 	NumberofCH 	0
scalar RSUExampleScenario.node[52].appl 	NumberofON 	0.43243243243243
scalar RSUExampleScenario.node[52].appl 	NumberofFN 	0.56756756756757
scalar RSUExampleScenario.node[52].veinsmobility 	startTime 	125.4
scalar RSUExampleScenario.node[52].veinsmobility 	totalTime 	324.6
scalar RSUExampleScenario.node[52].veinsmobility 	stopTime 	450
scalar RSUExampleScenario.node[52].veinsmobility 	minSpeed 	0
scalar RSUExampleScenario.node[52].veinsmobility 	maxSpeed 	13.999918783221
scalar RSUExampleScenario.node[52].veinsmobility 	totalDistance 	1359.0433680178
scalar RSUExampleScenario.node[52].veinsmobility 	totalCO2Emission 	518.68974568947
scalar RSUExampleScenario.node[53].appl 	meanClusterNodes 	0
scalar RSUExampleScenario.node[53].appl 	meanClusterHeadUtility 	0
scalar RSUExampleScenario.node[53].appl 	NumberofCH 	0
scalar RSUExampleScenario.node[53].appl 	NumberofON 	0.081081081081081
scalar RSUExampleScenario.node[53].appl 	NumberofFN 	0.91891891891892
scalar RSUExampleScenario.node[53].veinsmobility 	startTime 	127.8
scalar RSUExampleScenario.node[53].veinsmobility 	totalTime 	322.2
scalar RSUExampleScenario.node[53].veinsmobility 	stopTime 	450
scalar RSUExampleScenario.node[53].veinsmobility 	minSpeed 	0
scalar RSUExampleScenario.node[53].veinsmobility 	maxSpeed 	13.999877591461
scalar RSUExampleScenario.node[53].veinsmobility 	totalDistance 	1326.1553557071
scalar RSUExampleScenario.node[53].veinsmobility 	totalCO2Emission 	510.76805389796
scalar RSUExampleScenario.node[54].appl 	meanClusterNodes 	0
scalar RSUExampleScenario.node[54].appl 	meanClusterHeadUtility 	0
scalar RSUExampleScenario.node[54].appl 	NumberofCH 	0
scalar RSUExampleScenario.node[54].appl 	NumberofON 	0.27027027027027
scalar RSUExampleScenario.node[54].appl 	NumberofFN 	0.72972972972973
scalar RSUExampleScenario.node[54].veinsmobility 	startTime 	130.2
scalar RSUExampleScenario.node[54].veinsmobility 	totalTime 	319.8
scalar RSUExampleScenario.node[54].veinsmobility 	stopTime 	450
scalar RSUExampleScenario.node[54].veinsmobility 	minSpeed 	0
scalar RSUExampleScenario.node[54].veinsmobility 	maxSpeed 	13.999723656941
scalar RSUExampleScenario.node[54].veinsmobility 	totalDistance 	1292.9973608607
scalar RSUExampleScenario.node[54].veinsmobility 	totalCO2Emission 	510.62080924925
scalar RSUExampleScenario.node[55].appl 	meanClusterNodes 	7
scalar RSUExampleScenario.node[55].appl 	meanClusterHeadUtility 	15.301633113819
scalar RSUExampleScenario.node[55].appl 	NumberofCH 	0.054054054054054
scalar RSUExampleScenario.node[55].appl 	NumberofON 	0.48648648648649
scalar RSUExampleScenario.node[55].appl 	NumberofFN 	0.45945945945946
scalar RSUExampleScenario.node[55].veinsmobility 	startTime 	132.6
scalar RSUExampleScenario.node[55].veinsmobility 	totalTime 	317.4
scalar RSUExampleScenario.node[55].veinsmobility 	stopTime 	450
scalar RSUExampleScenario.node[55].veinsmobility 	minSpeed 	0
scalar RSUExampleScenario.node[55].veinsmobility 	maxSpeed 	13.999809941791
scalar RSUExampleScenario.node[55].veinsmobility 	totalDistance 	1258.778009333
scalar RSUExampleScenario.node[55].veinsmobility 	totalCO2Emission 	499.0355725488
scalar RSUExampleScenario.node[56].appl 	meanClusterNodes 	9.5
scalar RSUExampleScenario.node[56].appl 	meanClusterHeadUtility 	17.949720064075
scalar RSUExampleScenario.node[56].appl 	NumberofCH 	0.054054054054054
scalar RSUExampleScenario.node[56].appl 	NumberofON 	0.35135135135135
scalar RSUExampleScenario.node[56].appl 	NumberofFN 	0.59459459459459
scalar RSUExampleScenario.node[56].veinsmobility 	startTime 	135
scalar RSUExampleScenario.node[56].veinsmobility 	totalTime 	315
scalar RSUExampleScenario.node[56].veinsmobility 	stopTime 	450
scalar RSUExampleScenario.node[56].veinsmobility 	minSpeed 	0
scalar RSUExampleScenario.node[56].veinsmobility 	maxSpeed 	13.99985175244
scalar RSUExampleScenario.node[56].veinsmobility 	totalDistance 	1224.3457928657
scalar RSUExampleScenario.node[56].veinsmobility 	totalCO2Emission 	496.33850815972
scalar RSUExampleScenario.node[57].appl 	meanClusterNodes 	6
scalar RSUExampleScenario.node[57].appl 	meanClusterHeadUtility 	16.800354506202
scalar RSUExampleScenario.node[57].appl 	NumberofCH 	0.054054054054054
scalar RSUExampleScenario.node[57].appl 	NumberofON 	0.54054054054054
scalar RSUExampleScenario.node[57].appl 	NumberofFN 	0.40540540540541
scalar RSUExampleScenario.node[57].veinsmobility 	startTime 	137.4
scalar RSUExampleScenario.node[57].veinsmobility 	totalTime 	312.6
scalar RSUExampleScenario.node[57].veinsmobility 	stopTime 	450
scalar RSUExampleScenario.node[57].veinsmobility 	minSpeed 	0
scalar RSUExampleScenario.node[57].veinsmobility 	maxSpeed 	13.99998945076
scalar RSUExampleScenario.node[57].veinsmobility 	totalDistance 	1191.3791581314
scalar RSUExampleScenario.node[57].veinsmobility 	totalCO2Emission 	491.41302405244
scalar RSUExampleScenario.node[58].appl 	meanClusterNodes 	0
scalar RSUExampleScenario.node[58].appl 	meanClusterHeadUtility 	0
scalar RSUExampleScenario.node[58].appl 	NumberofCH 	0
scalar RSUExampleScenario.node[58].appl 	NumberofON 	0.62162162162162
scalar RSUExampleScenario.node[58].appl 	NumberofFN 	0.37837837837838
scalar RSUExampleScenario.node[58].veinsmobility 	startTime 	139.8
scalar RSUExampleScenario.node[58].veinsmobility 	totalTime 	310.2
scalar RSUExampleScenario.node[58].veinsmobility 	stopTime 	450
scalar RSUExampleScenario.node[58].veinsmobility 	minSpeed 	0
scalar RSUExampleScenario.node[58].veinsmobility 	maxSpeed 	13.999813801837
scalar RSUExampleScenario.node[58].veinsmobility 	totalDistance 	1157.4356420522
scalar RSUExampleScenario.node[58].veinsmobility 	totalCO2Emission 	485.39902074261
scalar RSUExampleScenario.node[59].appl 	meanClusterNodes 	6.5
scalar RSUExampleScenario.node[59].appl 	meanClusterHeadUtility 	17.968017748898
scalar RSUExampleScenario.node[59].appl 	NumberofCH 	0.054054054054054
scalar RSUExampleScenario.node[59].appl 	NumberofON 	0.40540540540541
scalar RSUExampleScenario.node[59].appl 	NumberofFN 	0.54054054054054
scalar RSUExampleScenario.node[59].veinsmobility 	startTime 	142.2
scalar RSUExampleScenario.node[59].veinsmobility 	totalTime 	307.8
scalar RSUExampleScenario.node[59].veinsmobility 	stopTime 	450
scalar RSUExampleScenario.node[59].veinsmobility 	minSpeed 	0
scalar RSUExampleScenario.node[59].veinsmobility 	maxSpeed 	13.999701044215
scalar RSUExampleScenario.node[59].veinsmobility 	totalDistance 	1123.3117259147
scalar RSUExampleScenario.node[59].veinsmobility 	totalCO2Emission 	479.81128245203
scalar RSUExampleScenario.node[6].appl 	meanClusterNodes 	3
scalar RSUExampleScenario.node[6].appl 	meanClusterHeadUtility 	18.864125273975
scalar RSUExampleScenario.node[6].appl 	NumberofCH 	0.054054054054054
scalar RSUExampleScenario.node[6].appl 	NumberofON 	0.32432432432432
scalar RSUExampleScenario.node[6].appl 	NumberofFN 	0.62162162162162
scalar RSUExampleScenario.node[6].veinsmobility 	startTime 	14.5
scalar RSUExampleScenario.node[6].veinsmobility 	totalTime 	435.5
scalar RSUExampleScenario.node[6].veinsmobility 	stopTime 	450
scalar RSUExampleScenario.node[6].veinsmobility 	minSpeed 	0
scalar RSUExampleScenario.node[6].veinsmobility 	maxSpeed 	13.999946062695
scalar RSUExampleScenario.node[6].veinsmobility 	totalDistance 	2905.5140105381
scalar RSUExampleScenario.node[6].veinsmobility 	totalCO2Emission 	774.81855309469
scalar RSUExampleScenario.node[60].appl 	meanClusterNodes 	4.5
scalar RSUExampleScenario.node[60].appl 	meanClusterHeadUtility 	17.375087944675
scalar RSUExampleScenario.node[60].appl 	NumberofCH 	0.054054054054054
scalar RSUExampleScenario.node[60].appl 	NumberofON 	0.43243243243243
scalar RSUExampleScenario.node[60].appl 	NumberofFN 	0.51351351351351
scalar RSUExampleScenario.node[60].veinsmobility 	startTime 	144.7
scalar RSUExampleScenario.node[60].veinsmobility 	totalTime 	305.3
scalar RSUExampleScenario.node[60].veinsmobility 	stopTime 	450
scalar RSUExampleScenario.node[60].veinsmobility 	minSpeed 	0
scalar RSUExampleScenario.node[60].veinsmobility 	maxSpeed 	13.999964631679
scalar RSUExampleScenario.node[60].veinsmobility 	totalDistance 	1090.7949447132
scalar RSUExampleScenario.node[60].veinsmobility 	totalCO2Emission 	474.98487888631
scalar RSUExampleScenario.node[61].appl 	meanClusterNodes 	1.5
scalar RSUExampleScenario.node[61].appl 	meanClusterHeadUtility 	20.56764691371
scalar RSUExampleScenario.node[61].appl 	NumberofCH 	0.054054054054054
scalar RSUExampleScenario.node[61].appl 	NumberofON 	0.35135135135135
scalar RSUExampleScenario.node[61].appl 	NumberofFN 	0.59459459459459
scalar RSUExampleScenario.node[61].veinsmobility 	startTime 	147.1
scalar RSUExampleScenario.node[61].veinsmobility 	totalTime 	302.9
scalar RSUExampleScenario.node[61].veinsmobility 	stopTime 	450
scalar RSUExampleScenario.node[61].veinsmobility 	minSpeed 	0
scalar RSUExampleScenario.node[61].veinsmobility 	maxSpeed 	13.999748370205
scalar RSUExampleScenario.node[61].veinsmobility 	totalDistance 	1057.6026013714
scalar RSUExampleScenario.node[61].veinsmobility 	totalCO2Emission 	469.00677432497
scalar RSUExampleScenario.node[62].appl 	meanClusterNodes 	0
scalar RSUExampleScenario.node[62].appl 	meanClusterHeadUtility 	0
scalar RSUExampleScenario.node[62].appl 	NumberofCH 	0
scalar RSUExampleScenario.node[62].appl 	NumberofON 	0.37837837837838
scalar RSUExampleScenario.node[62].appl 	NumberofFN 	0.62162162162162
scalar RSUExampleScenario.node[62].veinsmobility 	startTime 	149.5
scalar RSUExampleScenario.node[62].veinsmobility 	totalTime 	300.5
scalar RSUExampleScenario.node[62].veinsmobility 	stopTime 	450
scalar RSUExampleScenario.node[62].veinsmobility 	minSpeed 	0
scalar RSUExampleScenario.node[62].veinsmobility 	maxSpeed 	13.999140302667
scalar RSUExampleScenario.node[62].veinsmobility 	totalDistance 	1023.4122847092
scalar RSUExampleScenario.node[62].veinsmobility 	totalCO2Emission 	463.46528407279
scalar RSUExampleScenario.node[63].appl 	meanClusterNodes 	3
scalar RSUExampleScenario.node[63].appl 	meanClusterHeadUtility 	17.226628468122
scalar RSUExampleScenario.node[63].appl 	NumberofCH 	0.054054054054054
scalar RSUExampleScenario.node[63].appl 	NumberofON 	0.43243243243243
scalar RSUExampleScenario.node[63].appl 	NumberofFN 	0.51351351351351
scalar RSUExampleScenario.node[63].veinsmobility 	startTime 	151.9
scalar RSUExampleScenario.node[63].veinsmobility 	totalTime 	298.1
scalar RSUExampleScenario.node[63].veinsmobility 	stopTime 	450
scalar RSUExampleScenario.node[63].veinsmobility 	minSpeed 	0
scalar RSUExampleScenario.node[63].veinsmobility 	maxSpeed 	13.999949575083
scalar RSUExampleScenario.node[63].veinsmobility 	totalDistance 	983.88500598306
scalar RSUExampleScenario.node[63].veinsmobility 	totalCO2Emission 	448.37779962483
scalar RSUExampleScenario.node[64].appl 	meanClusterNodes 	0
scalar RSUExampleScenario.node[64].appl 	meanClusterHeadUtility 	0
scalar RSUExampleScenario.node[64].appl 	NumberofCH 	0
scalar RSUExampleScenario.node[64].appl 	NumberofON 	0.35135135135135
scalar RSUExampleScenario.node[64].appl 	NumberofFN 	0.64864864864865
scalar RSUExampleScenario.node[64].veinsmobility 	startTime 	154.3
scalar RSUExampleScenario.node[64].veinsmobility 	totalTime 	295.7
scalar RSUExampleScenario.node[64].veinsmobility 	stopTime 	450
scalar RSUExampleScenario.node[64].veinsmobility 	minSpeed 	0
scalar RSUExampleScenario.node[64].veinsmobility 	maxSpeed 	13.99962908281
scalar RSUExampleScenario.node[64].veinsmobility 	totalDistance 	953.88316825194
scalar RSUExampleScenario.node[64].veinsmobility 	totalCO2Emission 	434.86484088696
scalar RSUExampleScenario.node[65].appl 	meanClusterNodes 	8.5
scalar RSUExampleScenario.node[65].appl 	meanClusterHeadUtility 	20.255179191351
scalar RSUExampleScenario.node[65].appl 	NumberofCH 	0.054054054054054
scalar RSUExampleScenario.node[65].appl 	NumberofON 	0.21621621621622
scalar RSUExampleScenario.node[65].appl 	NumberofFN 	0.72972972972973
scalar RSUExampleScenario.node[65].veinsmobility 	startTime 	156.7
scalar RSUExampleScenario.node[65].veinsmobility 	totalTime 	293.3
scalar RSUExampleScenario.node[65].veinsmobility 	stopTime 	450
scalar RSUExampleScenario.node[65].veinsmobility 	minSpeed 	0
scalar RSUExampleScenario.node[65].veinsmobility 	maxSpeed 	13.999971951083
scalar RSUExampleScenario.node[65].veinsmobility 	totalDistance 	940.27544342602
scalar RSUExampleScenario.node[65].veinsmobility 	totalCO2Emission 	429.25706999638
scalar RSUExampleScenario.node[66].appl 	meanClusterNodes 	5.5
scalar RSUExampleScenario.node[66].appl 	meanClusterHeadUtility 	19.607077971908
scalar RSUExampleScenario.node[66].appl 	NumberofCH 	0.054054054054054
scalar RSUExampleScenario.node[66].appl 	NumberofON 	0.37837837837838
scalar RSUExampleScenario.node[66].appl 	NumberofFN 	0.56756756756757
scalar RSUExampleScenario.node[66].veinsmobility 	startTime 	159.1
scalar RSUExampleScenario.node[66].veinsmobility 	totalTime 	290.9
scalar RSUExampleScenario.node[66].veinsmobility 	stopTime 	450
scalar RSUExampleScenario.node[66].veinsmobility 	minSpeed 	0
scalar RSUExampleScenario.node[66].veinsmobility 	maxSpeed 	13.998387856151
scalar RSUExampleScenario.node[66].veinsmobility 	totalDistance 	928.1356302838
scalar RSUExampleScenario.node[66].veinsmobility 	totalCO2Emission 	423.59998680962
scalar RSUExampleScenario.node[67].appl 	meanClusterNodes 	0
scalar RSUExampleScenario.node[67].appl 	meanClusterHeadUtility 	0
scalar RSUExampleScenario.node[67].appl 	NumberofCH 	0
scalar RSUExampleScenario.node[67].appl 	NumberofON 	0.45945945945946
scalar RSUExampleScenario.node[67].appl 	NumberofFN 	0.54054054054054
scalar RSUExampleScenario.node[67].veinsmobility 	startTime 	161.5
scalar RSUExampleScenario.node[67].veinsmobility 	totalTime 	288.5
scalar RSUExampleScenario.node[67].veinsmobility 	stopTime 	450
scalar RSUExampleScenario.node[67].veinsmobility 	minSpeed 	0
scalar RSUExampleScenario.node[67].veinsmobility 	maxSpeed 	13.999222923336
scalar RSUExampleScenario.node[67].veinsmobility 	totalDistance 	912.92176624542
scalar RSUExampleScenario.node[67].veinsmobility 	totalCO2Emission 	421.72789987626
scalar RSUExampleScenario.node[68].appl 	meanClusterNodes 	10
scalar RSUExampleScenario.node[68].appl 	meanClusterHeadUtility 	19.238024635234
scalar RSUExampleScenario.node[68].appl 	NumberofCH 	0.054054054054054
scalar RSUExampleScenario.node[68].appl 	NumberofON 	0.16216216216216
scalar RSUExampleScenario.node[68].appl 	NumberofFN 	0.78378378378378
scalar RSUExampleScenario.node[68].veinsmobility 	startTime 	163.9
scalar RSUExampleScenario.node[68].veinsmobility 	totalTime 	286.1
scalar RSUExampleScenario.node[68].veinsmobility 	stopTime 	450
scalar RSUExampleScenario.node[68].veinsmobility 	minSpeed 	0
scalar RSUExampleScenario.node[68].veinsmobility 	maxSpeed 	13.999824252918
scalar RSUExampleScenario.node[68].veinsmobility 	totalDistance 	893.54527463018
scalar RSUExampleScenario.node[68].veinsmobility 	totalCO2Emission 	419.76955048019
scalar RSUExampleScenario.node[69].appl 	meanClusterNodes 	8.5
scalar RSUExampleScenario.node[69].appl 	meanClusterHeadUtility 	16.955162428556
scalar RSUExampleScenario.node[69].appl 	NumberofCH 	0.054054054054054
scalar RSUExampleScenario.node[69].appl 	NumberofON 	0.21621621621622
scalar RSUExampleScenario.node[69].appl 	NumberofFN 	0.72972972972973
scalar RSUExampleScenario.node[69].veinsmobility 	startTime 	166.3
scalar RSUExampleScenario.node[69].veinsmobility 	totalTime 	283.7
scalar RSUExampleScenario.node[69].veinsmobility 	stopTime 	450
scalar RSUExampleScenario.node[69].veinsmobility 	minSpeed 	0
scalar RSUExampleScenario.node[69].veinsmobility 	maxSpeed 	13.999931596566
scalar RSUExampleScenario.node[69].veinsmobility 	totalDistance 	859.10885061905
scalar RSUExampleScenario.node[69].veinsmobility 	totalCO2Emission 	414.00865242777
scalar RSUExampleScenario.node[7].appl 	meanClusterNodes 	0
scalar RSUExampleScenario.node[7].appl 	meanClusterHeadUtility 	0
scalar RSUExampleScenario.node[7].appl 	NumberofCH 	0
scalar RSUExampleScenario.node[7].appl 	NumberofON 	0.37837837837838
scalar RSUExampleScenario.node[7].appl 	NumberofFN 	0.62162162162162
scalar RSUExampleScenario.node[7].veinsmobility 	startTime 	16.9
scalar RSUExampleScenario.node[7].veinsmobility 	totalTime 	433.1
scalar RSUExampleScenario.node[7].veinsmobility 	stopTime 	450
scalar RSUExampleScenario.node[7].veinsmobility 	minSpeed 	0
scalar RSUExampleScenario.node[7].veinsmobility 	maxSpeed 	13.999979103499
scalar RSUExampleScenario.node[7].veinsmobility 	totalDistance 	2885.5448078626
scalar RSUExampleScenario.node[7].veinsmobility 	totalCO2Emission 	779.53133796202
scalar RSUExampleScenario.node[70].appl 	meanClusterNodes 	6
scalar RSUExampleScenario.node[70].appl 	meanClusterHeadUtility 	18.146052055101
scalar RSUExampleScenario.node[70].appl 	NumberofCH 	0.054054054054054
scalar RSUExampleScenario.node[70].appl 	NumberofON 	0.43243243243243
scalar RSUExampleScenario.node[70].appl 	NumberofFN 	0.51351351351351
scalar RSUExampleScenario.node[70].veinsmobility 	startTime 	168.8
scalar RSUExampleScenario.node[70].veinsmobility 	totalTime 	281.2
scalar RSUExampleScenario.node[70].veinsmobility 	stopTime 	450
scalar RSUExampleScenario.node[70].veinsmobility 	minSpeed 	0
scalar RSUExampleScenario.node[70].veinsmobility 	maxSpeed 	13.999960455515
scalar RSUExampleScenario.node[70].veinsmobility 	totalDistance 	826.12122281775
scalar RSUExampleScenario.node[70].veinsmobility 	totalCO2Emission 	408.0268329272
scalar RSUExampleScenario.node[71].appl 	meanClusterNodes 	0
scalar RSUExampleScenario.node[71].appl 	meanClusterHeadUtility 	0
scalar RSUExampleScenario.node[71].appl 	NumberofCH 	0
scalar RSUExampleScenario.node[71].appl 	NumberofON 	0.59459459459459
scalar RSUExampleScenario.node[71].appl 	NumberofFN 	0.40540540540541
scalar RSUExampleScenario.node[71].veinsmobility 	startTime 	171.2
scalar RSUExampleScenario.node[71].veinsmobility 	totalTime 	278.8
scalar RSUExampleScenario.node[71].veinsmobility 	stopTime 	450
scalar RSUExampleScenario.node[71].veinsmobility 	minSpeed 	0
scalar RSUExampleScenario.node[71].veinsmobility 	maxSpeed 	13.999880876415
scalar RSUExampleScenario.node[71].veinsmobility 	totalDistance 	793.41118602393
scalar RSUExampleScenario.node[71].veinsmobility 	totalCO2Emission 	403.36311287788
scalar RSUExampleScenario.node[72].appl 	meanClusterNodes 	6.3333333333333
scalar RSUExampleScenario.node[72].appl 	meanClusterHeadUtility 	11.607884340208
scalar RSUExampleScenario.node[72].appl 	NumberofCH 	0.081081081081081
scalar RSUExampleScenario.node[72].appl 	NumberofON 	0.35135135135135
scalar RSUExampleScenario.node[72].appl 	NumberofFN 	0.56756756756757
scalar RSUExampleScenario.node[72].veinsmobility 	startTime 	173.6
scalar RSUExampleScenario.node[72].veinsmobility 	totalTime 	276.4
scalar RSUExampleScenario.node[72].veinsmobility 	stopTime 	450
scalar RSUExampleScenario.node[72].veinsmobility 	minSpeed 	0
scalar RSUExampleScenario.node[72].veinsmobility 	maxSpeed 	13.999951498976
scalar RSUExampleScenario.node[72].veinsmobility 	totalDistance 	760.05289155354
scalar RSUExampleScenario.node[72].veinsmobility 	totalCO2Emission 	396.85285309224
scalar RSUExampleScenario.node[73].appl 	meanClusterNodes 	0
scalar RSUExampleScenario.node[73].appl 	meanClusterHeadUtility 	0
scalar RSUExampleScenario.node[73].appl 	NumberofCH 	0
scalar RSUExampleScenario.node[73].appl 	NumberofON 	0.59459459459459
scalar RSUExampleScenario.node[73].appl 	NumberofFN 	0.40540540540541
scalar RSUExampleScenario.node[73].veinsmobility 	startTime 	176
scalar RSUExampleScenario.node[73].veinsmobility 	totalTime 	274
scalar RSUExampleScenario.node[73].veinsmobility 	stopTime 	450
scalar RSUExampleScenario.node[73].veinsmobility 	minSpeed 	0
scalar RSUExampleScenario.node[73].veinsmobility 	maxSpeed 	13.998972134991
scalar RSUExampleScenario.node[73].veinsmobility 	totalDistance 	726.86050933195
scalar RSUExampleScenario.node[73].veinsmobility 	totalCO2Emission 	392.7927336491
scalar RSUExampleScenario.node[74].appl 	meanClusterNodes 	0
scalar RSUExampleScenario.node[74].appl 	meanClusterHeadUtility 	0
scalar RSUExampleScenario.node[74].appl 	NumberofCH 	0
scalar RSUExampleScenario.node[74].appl 	NumberofON 	0.18918918918919
scalar RSUExampleScenario.node[74].appl 	NumberofFN 	0.81081081081081
scalar RSUExampleScenario.node[74].veinsmobility 	startTime 	178.4
scalar RSUExampleScenario.node[74].veinsmobility 	totalTime 	271.6
scalar RSUExampleScenario.node[74].veinsmobility 	stopTime 	450
scalar RSUExampleScenario.node[74].veinsmobility 	minSpeed 	0
scalar RSUExampleScenario.node[74].veinsmobility 	maxSpeed 	13.999408239035
scalar RSUExampleScenario.node[74].veinsmobility 	totalDistance 	692.98252658425
scalar RSUExampleScenario.node[74].veinsmobility 	totalCO2Emission 	385.1441229918
scalar RSUExampleScenario.node[75].appl 	meanClusterNodes 	0
scalar RSUExampleScenario.node[75].appl 	meanClusterHeadUtility 	0
scalar RSUExampleScenario.node[75].appl 	NumberofCH 	0
scalar RSUExampleScenario.node[75].appl 	NumberofON 	0.32432432432432
scalar RSUExampleScenario.node[75].appl 	NumberofFN 	0.67567567567568
scalar RSUExampleScenario.node[75].veinsmobility 	startTime 	180.8
scalar RSUExampleScenario.node[75].veinsmobility 	totalTime 	269.2
scalar RSUExampleScenario.node[75].veinsmobility 	stopTime 	450
scalar RSUExampleScenario.node[75].veinsmobility 	minSpeed 	0
scalar RSUExampleScenario.node[75].veinsmobility 	maxSpeed 	13.999819980138
scalar RSUExampleScenario.node[75].veinsmobility 	totalDistance 	656.72566836913
scalar RSUExampleScenario.node[75].veinsmobility 	totalCO2Emission 	379.33707126143
scalar RSUExampleScenario.node[76].appl 	meanClusterNodes 	4
scalar RSUExampleScenario.node[76].appl 	meanClusterHeadUtility 	16.476434663408
scalar RSUExampleScenario.node[76].appl 	NumberofCH 	0.054054054054054
scalar RSUExampleScenario.node[76].appl 	NumberofON 	0.24324324324324
scalar RSUExampleScenario.node[76].appl 	NumberofFN 	0.7027027027027
scalar RSUExampleScenario.node[76].veinsmobility 	startTime 	183.2
scalar RSUExampleScenario.node[76].veinsmobility 	totalTime 	266.8
scalar RSUExampleScenario.node[76].veinsmobility 	stopTime 	450
scalar RSUExampleScenario.node[76].veinsmobility 	minSpeed 	0
scalar RSUExampleScenario.node[76].veinsmobility 	maxSpeed 	13.9996699211
scalar RSUExampleScenario.node[76].veinsmobility 	totalDistance 	624.07262734427
scalar RSUExampleScenario.node[76].veinsmobility 	totalCO2Emission 	374.66451660402
scalar RSUExampleScenario.node[77].appl 	meanClusterNodes 	8
scalar RSUExampleScenario.node[77].appl 	meanClusterHeadUtility 	17.796196955001
scalar RSUExampleScenario.node[77].appl 	NumberofCH 	0.054054054054054
scalar RSUExampleScenario.node[77].appl 	NumberofON 	0.27027027027027
scalar RSUExampleScenario.node[77].appl 	NumberofFN 	0.67567567567568
scalar RSUExampleScenario.node[77].veinsmobility 	startTime 	185.6
scalar RSUExampleScenario.node[77].veinsmobility 	totalTime 	264.4
scalar RSUExampleScenario.node[77].veinsmobility 	stopTime 	450
scalar RSUExampleScenario.node[77].veinsmobility 	minSpeed 	0
scalar RSUExampleScenario.node[77].veinsmobility 	maxSpeed 	13.999179125594
scalar RSUExampleScenario.node[77].veinsmobility 	totalDistance 	591.28255020818
scalar RSUExampleScenario.node[77].veinsmobility 	totalCO2Emission 	366.82210024405
scalar RSUExampleScenario.node[78].appl 	meanClusterNodes 	8
scalar RSUExampleScenario.node[78].appl 	meanClusterHeadUtility 	16.834053782652
scalar RSUExampleScenario.node[78].appl 	NumberofCH 	0.054054054054054
scalar RSUExampleScenario.node[78].appl 	NumberofON 	0.21621621621622
scalar RSUExampleScenario.node[78].appl 	NumberofFN 	0.72972972972973
scalar RSUExampleScenario.node[78].veinsmobility 	startTime 	188
scalar RSUExampleScenario.node[78].veinsmobility 	totalTime 	262
scalar RSUExampleScenario.node[78].veinsmobility 	stopTime 	450
scalar RSUExampleScenario.node[78].veinsmobility 	minSpeed 	0
scalar RSUExampleScenario.node[78].veinsmobility 	maxSpeed 	13.999566516436
scalar RSUExampleScenario.node[78].veinsmobility 	totalDistance 	557.41133278707
scalar RSUExampleScenario.node[78].veinsmobility 	totalCO2Emission 	362.72508927341
scalar RSUExampleScenario.node[79].appl 	meanClusterNodes 	2
scalar RSUExampleScenario.node[79].appl 	meanClusterHeadUtility 	17.249794219809
scalar RSUExampleScenario.node[79].appl 	NumberofCH 	0.054054054054054
scalar RSUExampleScenario.node[79].appl 	NumberofON 	0.37837837837838
scalar RSUExampleScenario.node[79].appl 	NumberofFN 	0.56756756756757
scalar RSUExampleScenario.node[79].veinsmobility 	startTime 	190.4
scalar RSUExampleScenario.node[79].veinsmobility 	totalTime 	259.6
scalar RSUExampleScenario.node[79].veinsmobility 	stopTime 	450
scalar RSUExampleScenario.node[79].veinsmobility 	minSpeed 	0
scalar RSUExampleScenario.node[79].veinsmobility 	maxSpeed 	13.999770442254
scalar RSUExampleScenario.node[79].veinsmobility 	totalDistance 	523.67397839182
scalar RSUExampleScenario.node[79].veinsmobility 	totalCO2Emission 	356.16078004789
scalar RSUExampleScenario.node[8].appl 	meanClusterNodes 	0
scalar RSUExampleScenario.node[8].appl 	meanClusterHeadUtility 	0
scalar RSUExampleScenario.node[8].appl 	NumberofCH 	0
scalar RSUExampleScenario.node[8].appl 	NumberofON 	0.13513513513514
scalar RSUExampleScenario.node[8].appl 	NumberofFN 	0.86486486486486
scalar RSUExampleScenario.node[8].veinsmobility 	startTime 	19.3
scalar RSUExampleScenario.node[8].veinsmobility 	totalTime 	430.7
scalar RSUExampleScenario.node[8].veinsmobility 	stopTime 	450
scalar RSUExampleScenario.node[8].veinsmobility 	minSpeed 	0
scalar RSUExampleScenario.node[8].veinsmobility 	maxSpeed 	13.999922202383
scalar RSUExampleScenario.node[8].veinsmobility 	totalDistance 	2861.736207204
scalar RSUExampleScenario.node[8].veinsmobility 	totalCO2Emission 	774.76912913578
scalar RSUExampleScenario.node[80].appl 	meanClusterNodes 	9.5
scalar RSUExampleScenario.node[80].appl 	meanClusterHeadUtility 	17.777021717673
scalar RSUExampleScenario.node[80].appl 	NumberofCH 	0.054054054054054
scalar RSUExampleScenario.node[80].appl 	NumberofON 	0.2972972972973
scalar RSUExampleScenario.node[80].appl 	NumberofFN 	0.64864864864865
scalar RSUExampleScenario.node[80].veinsmobility 	startTime 	192.9
scalar RSUExampleScenario.node[80].veinsmobility 	totalTime 	257.1
scalar RSUExampleScenario.node[80].veinsmobility 	stopTime 	450
scalar RSUExampleScenario.node[80].veinsmobility 	minSpeed 	0
scalar RSUExampleScenario.node[80].veinsmobility 	maxSpeed 	13.999100394633
scalar RSUExampleScenario.node[80].veinsmobility 	totalDistance 	490.3842249301
scalar RSUExampleScenario.node[80].veinsmobility 	totalCO2Emission 	350.30850719495
scalar RSUExampleScenario.node[81].appl 	meanClusterNodes 	0
scalar RSUExampleScenario.node[81].appl 	meanClusterHeadUtility 	0
scalar RSUExampleScenario.node[81].appl 	NumberofCH 	0
scalar RSUExampleScenario.node[81].appl 	NumberofON 	0.18918918918919
scalar RSUExampleScenario.node[81].appl 	NumberofFN 	0.81081081081081
scalar RSUExampleScenario.node[81].veinsmobility 	startTime 	195.3
scalar RSUExampleScenario.node[81].veinsmobility 	totalTime 	254.7
scalar RSUExampleScenario.node[81].veinsmobility 	stopTime 	450
scalar RSUExampleScenario.node[81].veinsmobility 	minSpeed 	0
scalar RSUExampleScenario.node[81].veinsmobility 	maxSpeed 	13.999707552528
scalar RSUExampleScenario.node[81].veinsmobility 	totalDistance 	456.39064293342
scalar RSUExampleScenario.node[81].veinsmobility 	totalCO2Emission 	344.93212726067
scalar RSUExampleScenario.node[82].appl 	meanClusterNodes 	6
scalar RSUExampleScenario.node[82].appl 	meanClusterHeadUtility 	16.851245567909
scalar RSUExampleScenario.node[82].appl 	NumberofCH 	0.054054054054054
scalar RSUExampleScenario.node[82].appl 	NumberofON 	0.13513513513514
scalar RSUExampleScenario.node[82].appl 	NumberofFN 	0.81081081081081
scalar RSUExampleScenario.node[82].veinsmobility 	startTime 	197.7
scalar RSUExampleScenario.node[82].veinsmobility 	totalTime 	252.3
scalar RSUExampleScenario.node[82].veinsmobility 	stopTime 	450
scalar RSUExampleScenario.node[82].veinsmobility 	minSpeed 	0
scalar RSUExampleScenario.node[82].veinsmobility 	maxSpeed 	13.998990925658
scalar RSUExampleScenario.node[82].veinsmobility 	totalDistance 	424.45262851606
scalar RSUExampleScenario.node[82].veinsmobility 	totalCO2Emission 	339.81183782539
scalar RSUExampleScenario.node[83].appl 	meanClusterNodes 	0
scalar RSUExampleScenario.node[83].appl 	meanClusterHeadUtility 	0
scalar RSUExampleScenario.node[83].appl 	NumberofCH 	0
scalar RSUExampleScenario.node[83].appl 	NumberofON 	0.40540540540541
scalar RSUExampleScenario.node[83].appl 	NumberofFN 	0.59459459459459
scalar RSUExampleScenario.node[83].veinsmobility 	startTime 	200.1
scalar RSUExampleScenario.node[83].veinsmobility 	totalTime 	249.9
scalar RSUExampleScenario.node[83].veinsmobility 	stopTime 	450
scalar RSUExampleScenario.node[83].veinsmobility 	minSpeed 	0
scalar RSUExampleScenario.node[83].veinsmobility 	maxSpeed 	13.996316744881
scalar RSUExampleScenario.node[83].veinsmobility 	totalDistance 	389.86009774689
scalar RSUExampleScenario.node[83].veinsmobility 	totalCO2Emission 	333.61849162732
scalar RSUExampleScenario.node[84].appl 	meanClusterNodes 	0
scalar RSUExampleScenario.node[84].appl 	meanClusterHeadUtility 	0
scalar RSUExampleScenario.node[84].appl 	NumberofCH 	0.054054054054054
scalar RSUExampleScenario.node[84].appl 	NumberofON 	0.10810810810811
scalar RSUExampleScenario.node[84].appl 	NumberofFN 	0.83783783783784
scalar RSUExampleScenario.node[84].veinsmobility 	startTime 	202.5
scalar RSUExampleScenario.node[84].veinsmobility 	totalTime 	247.5
scalar RSUExampleScenario.node[84].veinsmobility 	stopTime 	450
scalar RSUExampleScenario.node[84].veinsmobility 	minSpeed 	0
scalar RSUExampleScenario.node[84].veinsmobility 	maxSpeed 	13.99941503102
scalar RSUExampleScenario.node[84].veinsmobility 	totalDistance 	357.70544430873
scalar RSUExampleScenario.node[84].veinsmobility 	totalCO2Emission 	328.46848175261
scalar RSUExampleScenario.node[85].appl 	meanClusterNodes 	7
scalar RSUExampleScenario.node[85].appl 	meanClusterHeadUtility 	16.812701066915
scalar RSUExampleScenario.node[85].appl 	NumberofCH 	0.054054054054054
scalar RSUExampleScenario.node[85].appl 	NumberofON 	0.35135135135135
scalar RSUExampleScenario.node[85].appl 	NumberofFN 	0.59459459459459
scalar RSUExampleScenario.node[85].veinsmobility 	startTime 	204.9
scalar RSUExampleScenario.node[85].veinsmobility 	totalTime 	245.1
scalar RSUExampleScenario.node[85].veinsmobility 	stopTime 	450
scalar RSUExampleScenario.node[85].veinsmobility 	minSpeed 	0
scalar RSUExampleScenario.node[85].veinsmobility 	maxSpeed 	13.998486410431
scalar RSUExampleScenario.node[85].veinsmobility 	totalDistance 	324.21401572281
scalar RSUExampleScenario.node[85].veinsmobility 	totalCO2Emission 	322.70478139978
scalar RSUExampleScenario.node[86].appl 	meanClusterNodes 	4
scalar RSUExampleScenario.node[86].appl 	meanClusterHeadUtility 	20.211904952173
scalar RSUExampleScenario.node[86].appl 	NumberofCH 	0.054054054054054
scalar RSUExampleScenario.node[86].appl 	NumberofON 	0.35135135135135
scalar RSUExampleScenario.node[86].appl 	NumberofFN 	0.59459459459459
scalar RSUExampleScenario.node[86].veinsmobility 	startTime 	207.3
scalar RSUExampleScenario.node[86].veinsmobility 	totalTime 	242.7
scalar RSUExampleScenario.node[86].veinsmobility 	stopTime 	450
scalar RSUExampleScenario.node[86].veinsmobility 	minSpeed 	0
scalar RSUExampleScenario.node[86].veinsmobility 	maxSpeed 	13.950091437534
scalar RSUExampleScenario.node[86].veinsmobility 	totalDistance 	291.16484631879
scalar RSUExampleScenario.node[86].veinsmobility 	totalCO2Emission 	317.73597223849
scalar RSUExampleScenario.node[87].appl 	meanClusterNodes 	4
scalar RSUExampleScenario.node[87].appl 	meanClusterHeadUtility 	17.472823088141
scalar RSUExampleScenario.node[87].appl 	NumberofCH 	0.054054054054054
scalar RSUExampleScenario.node[87].appl 	NumberofON 	0.40540540540541
scalar RSUExampleScenario.node[87].appl 	NumberofFN 	0.54054054054054
scalar RSUExampleScenario.node[87].veinsmobility 	startTime 	209.7
scalar RSUExampleScenario.node[87].veinsmobility 	totalTime 	240.3
scalar RSUExampleScenario.node[87].veinsmobility 	stopTime 	450
scalar RSUExampleScenario.node[87].veinsmobility 	minSpeed 	0
scalar RSUExampleScenario.node[87].veinsmobility 	maxSpeed 	13.854459449011
scalar RSUExampleScenario.node[87].veinsmobility 	totalDistance 	250.31313715519
scalar RSUExampleScenario.node[87].veinsmobility 	totalCO2Emission 	299.77176452751
scalar RSUExampleScenario.node[88].appl 	meanClusterNodes 	0
scalar RSUExampl