version 2
run statisticRVV-192-20150325-23:48:16-24340
attr c 8
attr configname statisticRVV
attr datetime 20150325-23:48:16
attr experiment statisticRVV
attr inifile omnetpp.ini
attr iterationvars "$sc=\"erlangen-medium.launchd.xml\", $p=1/8, $c=8"
attr iterationvars2 "$sc=\"erlangen-medium.launchd.xml\", $p=1/8, $c=8, $repetition=2"
attr measurement "$sc=\"erlangen-medium.launchd.xml\", $p=1/8, $c=8"
attr network RSUExampleScenario
attr p 1/8
attr processid 24340
attr repetition 2
attr replication #2
attr resultdir results
attr runnumber 192
attr sc "\"erlangen-medium.launchd.xml\""
attr seedset 192

scalar . 	c 	8
scalar RSUExampleScenario.node[0].veinsmobility 	startTime 	0.1
scalar RSUExampleScenario.node[0].veinsmobility 	totalTime 	264.3
scalar RSUExampleScenario.node[0].veinsmobility 	stopTime 	264.5
scalar RSUExampleScenario.node[0].veinsmobility 	minSpeed 	0.2501551041021
scalar RSUExampleScenario.node[0].veinsmobility 	maxSpeed 	13.999986464218
scalar RSUExampleScenario.node[0].veinsmobility 	totalDistance 	3409.6687386704
scalar RSUExampleScenario.node[0].veinsmobility 	totalCO2Emission 	694.57956616873
scalar RSUExampleScenario.node[1].veinsmobility 	startTime 	3.1
scalar RSUExampleScenario.node[1].veinsmobility 	totalTime 	265.5
scalar RSUExampleScenario.node[1].veinsmobility 	stopTime 	268.7
scalar RSUExampleScenario.node[1].veinsmobility 	minSpeed 	0.25472914465819
scalar RSUExampleScenario.node[1].veinsmobility 	maxSpeed 	13.999997537488
scalar RSUExampleScenario.node[1].veinsmobility 	totalDistance 	3409.4438619483
scalar RSUExampleScenario.node[1].veinsmobility 	totalCO2Emission 	691.01784286187
scalar RSUExampleScenario.node[2].veinsmobility 	startTime 	6.1
scalar RSUExampleScenario.node[2].veinsmobility 	totalTime 	266.1
scalar RSUExampleScenario.node[2].veinsmobility 	stopTime 	272.3
scalar RSUExampleScenario.node[2].veinsmobility 	minSpeed 	0.25373201372917
scalar RSUExampleScenario.node[2].veinsmobility 	maxSpeed 	13.999920268077
scalar RSUExampleScenario.node[2].veinsmobility 	totalDistance 	3409.3334935728
scalar RSUExampleScenario.node[2].veinsmobility 	totalCO2Emission 	691.42030363881
scalar RSUExampleScenario.node[3].veinsmobility 	startTime 	9.1
scalar RSUExampleScenario.node[3].veinsmobility 	totalTime 	266.5
scalar RSUExampleScenario.node[3].veinsmobility 	stopTime 	275.7
scalar RSUExampleScenario.node[3].veinsmobility 	minSpeed 	0.25920396760223
scalar RSUExampleScenario.node[3].veinsmobility 	maxSpeed 	13.999643980893
scalar RSUExampleScenario.node[3].veinsmobility 	totalDistance 	3409.3629084254
scalar RSUExampleScenario.node[3].veinsmobility 	totalCO2Emission 	693.02984710307
scalar RSUExampleScenario.node[4].veinsmobility 	startTime 	12.1
scalar RSUExampleScenario.node[4].veinsmobility 	totalTime 	266.8
scalar RSUExampleScenario.node[4].veinsmobility 	stopTime 	279
scalar RSUExampleScenario.node[4].veinsmobility 	minSpeed 	0.25697802597983
scalar RSUExampleScenario.node[4].veinsmobility 	maxSpeed 	13.999816545236
scalar RSUExampleScenario.node[4].veinsmobility 	totalDistance 	3413.3147324001
scalar RSUExampleScenario.node[4].veinsmobility 	totalCO2Emission 	691.18590384182
scalar RSUExampleScenario.node[5].veinsmobility 	startTime 	15.1
scalar RSUExampleScenario.node[5].veinsmobility 	totalTime 	266.9
scalar RSUExampleScenario.node[5].veinsmobility 	stopTime 	282.1
scalar RSUExampleScenario.node[5].veinsmobility 	minSpeed 	0.2568971274111
scalar RSUExampleScenario.node[5].veinsmobility 	maxSpeed 	13.999930546388
scalar RSUExampleScenario.node[5].veinsmobility 	totalDistance 	3409.2618159586
scalar RSUExampleScenario.node[5].veinsmobility 	totalCO2Emission 	694.89617786643
scalar RSUExampleScenario.node[6].veinsmobility 	startTime 	18.1
scalar RSUExampleScenario.node[6].veinsmobility 	totalTime 	267.1
scalar RSUExampleScenario.node[6].veinsmobility 	stopTime 	285.3
scalar RSUExampleScenario.node[6].veinsmobility 	minSpeed 	0.25804767664592
scalar RSUExampleScenario.node[6].veinsmobility 	maxSpeed 	13.999924753278
scalar RSUExampleScenario.node[6].veinsmobility 	totalDistance 	3413.4406467758
scalar RSUExampleScenario.node[6].veinsmobility 	totalCO2Emission 	693.88946732664
scalar RSUExampleScenario.node[7].veinsmobility 	startTime 	21.1
scalar RSUExampleScenario.node[7].veinsmobility 	totalTime 	267.1
scalar RSUExampleScenario.node[7].veinsmobility 	stopTime 	288.3
scalar RSUExampleScenario.node[7].veinsmobility 	minSpeed 	0.25369647151302
scalar RSUExampleScenario.node[7].veinsmobility 	maxSpeed 	13.999965177714
scalar RSUExampleScenario.node[7].veinsmobility 	totalDistance 	3409.1822030571
scalar RSUExampleScenario.node[7].veinsmobility 	totalCO2Emission 	696.389869828
scalar RSUExampleScenario.node[8].veinsmobility 	startTime 	24.1
scalar RSUExampleScenario.node[8].veinsmobility 	totalTime 	267.1
scalar RSUExampleScenario.node[8].veinsmobility 	stopTime 	291.3
scalar RSUExampleScenario.node[8].veinsmobility 	minSpeed 	0.25275984395877
scalar RSUExampleScenario.node[8].veinsmobility 	maxSpeed 	13.999842830256
scalar RSUExampleScenario.node[8].veinsmobility 	totalDistance 	3413.5637672332
scalar RSUExampleScenario.node[8].veinsmobility 	totalCO2Emission 	694.19572222223
scalar RSUExampleScenario.node[9].veinsmobility 	startTime 	27.1
scalar RSUExampleScenario.node[9].veinsmobility 	totalTime 	267.2
scalar RSUExampleScenario.node[9].veinsmobility 	stopTime 	294.4
scalar RSUExampleScenario.node[9].veinsmobility 	minSpeed 	0.25244415028137
scalar RSUExampleScenario.node[9].veinsmobility 	maxSpeed 	13.99993294561
scalar RSUExampleScenario.node[9].veinsmobility 	totalDistance 	3409.0668616617
scalar RSUExampleScenario.node[9].veinsmobility 	totalCO2Emission 	691.41230415917
scalar RSUExampleScenario.node[10].veinsmobility 	startTime 	30.1
scalar RSUExampleScenario.node[10].veinsmobility 	totalTime 	267.2
scalar RSUExampleScenario.node[10].veinsmobility 	stopTime 	297.4
scalar RSUExampleScenario.node[10].veinsmobility 	minSpeed 	0.25166080912203
scalar RSUExampleScenario.node[10].veinsmobility 	maxSpeed 	13.99998095941
scalar RSUExampleScenario.node[10].veinsmobility 	totalDistance 	3413.6539870894
scalar RSUExampleScenario.node[10].veinsmobility 	totalCO2Emission 	693.80734103597
scalar RSUExampleScenario.node[11].veinsmobility 	startTime 	33.1
scalar RSUExampleScenario.node[11].veinsmobility 	totalTime 	267.3
scalar RSUExampleScenario.node[11].veinsmobility 	stopTime 	300.5
scalar RSUExampleScenario.node[11].veinsmobility 	minSpeed 	0.25981200904329
scalar RSUExampleScenario.node[11].veinsmobility 	maxSpeed 	13.999885039171
scalar RSUExampleScenario.node[11].veinsmobility 	totalDistance 	3410.0556162516
scalar RSUExampleScenario.node[11].veinsmobility 	totalCO2Emission 	692.95823449665
scalar RSUExampleScenario.node[12].veinsmobility 	startTime 	36.1
scalar RSUExampleScenario.node[12].veinsmobility 	totalTime 	267.3
scalar RSUExampleScenario.node[12].veinsmobility 	stopTime 	303.5
scalar RSUExampleScenario.node[12].veinsmobility 	minSpeed 	0.25223096786905
scalar RSUExampleScenario.node[12].veinsmobility 	maxSpeed 	13.999991552387
scalar RSUExampleScenario.node[12].veinsmobility 	totalDistance 	3413.4134307255
scalar RSUExampleScenario.node[12].veinsmobility 	totalCO2Emission 	690.15951663738
scalar RSUExampleScenario.node[13].veinsmobility 	startTime 	39.1
scalar RSUExampleScenario.node[13].veinsmobility 	totalTime 	267.3
scalar RSUExampleScenario.node[13].veinsmobility 	stopTime 	306.5
scalar RSUExampleScenario.node[13].veinsmobility 	minSpeed 	0.25210595270619
scalar RSUExampleScenario.node[13].veinsmobility 	maxSpeed 	13.999947317606
scalar RSUExampleScenario.node[13].veinsmobility 	totalDistance 	3409.2835216533
scalar RSUExampleScenario.node[13].veinsmobility 	totalCO2Emission 	689.61270710883
scalar RSUExampleScenario.node[14].veinsmobility 	startTime 	42.1
scalar RSUExampleScenario.node[14].veinsmobility 	totalTime 	267.4
scalar RSUExampleScenario.node[14].veinsmobility 	stopTime 	309.6
scalar RSUExampleScenario.node[14].veinsmobility 	minSpeed 	0.25488027713494
scalar RSUExampleScenario.node[14].veinsmobility 	maxSpeed 	13.99999425217
scalar RSUExampleScenario.node[14].veinsmobility 	totalDistance 	3414.1202497617
scalar RSUExampleScenario.node[14].veinsmobility 	totalCO2Emission 	692.19044891361
scalar RSUExampleScenario.node[15].veinsmobility 	startTime 	45.1
scalar RSUExampleScenario.node[15].veinsmobility 	totalTime 	267.5
scalar RSUExampleScenario.node[15].veinsmobility 	stopTime 	312.7
scalar RSUExampleScenario.node[15].veinsmobility 	minSpeed 	0.25253516737046
scalar RSUExampleScenario.node[15].veinsmobility 	maxSpeed 	13.999998554704
scalar RSUExampleScenario.node[15].veinsmobility 	totalDistance 	3409.6423366702
scalar RSUExampleScenario.node[15].veinsmobility 	totalCO2Emission 	690.01051583424
scalar RSUExampleScenario.node[16].veinsmobility 	startTime 	48.1
scalar RSUExampleScenario.node[16].veinsmobility 	totalTime 	267.6
scalar RSUExampleScenario.node[16].veinsmobility 	stopTime 	315.8
scalar RSUExampleScenario.node[16].veinsmobility 	minSpeed 	0.25878421077784
scalar RSUExampleScenario.node[16].veinsmobility 	maxSpeed 	13.999994062844
scalar RSUExampleScenario.node[16].veinsmobility 	totalDistance 	3413.8539592696
scalar RSUExampleScenario.node[16].veinsmobility 	totalCO2Emission 	692.20119084369
scalar RSUExampleScenario.node[17].veinsmobility 	startTime 	51.1
scalar RSUExampleScenario.node[17].veinsmobility 	totalTime 	267.8
scalar RSUExampleScenario.node[17].veinsmobility 	stopTime 	319
scalar RSUExampleScenario.node[17].veinsmobility 	minSpeed 	0.25894424120942
scalar RSUExampleScenario.node[17].veinsmobility 	maxSpeed 	13.999981986675
scalar RSUExampleScenario.node[17].veinsmobility 	totalDistance 	3410.1649900691
scalar RSUExampleScenario.node[17].veinsmobility 	totalCO2Emission 	690.30487476879
scalar RSUExampleScenario.node[18].veinsmobility 	startTime 	54.1
scalar RSUExampleScenario.node[18].veinsmobility 	totalTime 	268
scalar RSUExampleScenario.node[18].veinsmobility 	stopTime 	322.2
scalar RSUExampleScenario.node[18].veinsmobility 	minSpeed 	0.25383839354524
scalar RSUExampleScenario.node[18].veinsmobility 	maxSpeed 	13.999959136134
scalar RSUExampleScenario.node[18].veinsmobility 	totalDistance 	3409.7141336737
scalar RSUExampleScenario.node[18].veinsmobility 	totalCO2Emission 	690.73828415258
scalar RSUExampleScenario.node[19].veinsmobility 	startTime 	57.1
scalar RSUExampleScenario.node[19].veinsmobility 	totalTime 	268.2
scalar RSUExampleScenario.node[19].veinsmobility 	stopTime 	325.4
scalar RSUExampleScenario.node[19].veinsmobility 	minSpeed 	0.25750011989218
scalar RSUExampleScenario.node[19].veinsmobility 	maxSpeed 	13.99992943967
scalar RSUExampleScenario.node[19].veinsmobility 	totalDistance 	3414.1865765452
scalar RSUExampleScenario.node[19].veinsmobility 	totalCO2Emission 	687.62932591871
scalar RSUExampleScenario.node[20].veinsmobility 	startTime 	60.1
scalar RSUExampleScenario.node[20].veinsmobility 	totalTime 	268.4
scalar RSUExampleScenario.node[20].veinsmobility 	stopTime 	328.6
scalar RSUExampleScenario.node[20].veinsmobility 	minSpeed 	0.25356401022943
scalar RSUExampleScenario.node[20].veinsmobility 	maxSpeed 	13.999982367931
scalar RSUExampleScenario.node[20].veinsmobility 	totalDistance 	3409.516853153
scalar RSUExampleScenario.node[20].veinsmobility 	totalCO2Emission 	693.41075676037
scalar RSUExampleScenario.node[21].veinsmobility 	startTime 	63.1
scalar RSUExampleScenario.node[21].veinsmobility 	totalTime 	268.7
scalar RSUExampleScenario.node[21].veinsmobility 	stopTime 	331.9
scalar RSUExampleScenario.node[21].veinsmobility 	minSpeed 	0.25130292406073
scalar RSUExampleScenario.node[21].veinsmobility 	maxSpeed 	13.999992510793
scalar RSUExampleScenario.node[21].veinsmobility 	totalDistance 	3414.0775199983
scalar RSUExampleScenario.node[21].veinsmobility 	totalCO2Emission 	692.42792411348
scalar RSUExampleScenario.node[22].veinsmobility 	startTime 	66.1
scalar RSUExampleScenario.node[22].veinsmobility 	totalTime 	269
scalar RSUExampleScenario.node[22].veinsmobility 	stopTime 	335.2
scalar RSUExampleScenario.node[22].veinsmobility 	minSpeed 	0.25992460741056
scalar RSUExampleScenario.node[22].veinsmobility 	maxSpeed 	13.999850874003
scalar RSUExampleScenario.node[22].veinsmobility 	totalDistance 	3410.052031013
scalar RSUExampleScenario.node[22].veinsmobility 	totalCO2Emission 	692.52483160478
scalar RSUExampleScenario.node[23].veinsmobility 	startTime 	69.1
scalar RSUExampleScenario.node[23].veinsmobility 	totalTime 	269.4
scalar RSUExampleScenario.node[23].veinsmobility 	stopTime 	338.6
scalar RSUExampleScenario.node[23].veinsmobility 	minSpeed 	0.25262253377447
scalar RSUExampleScenario.node[23].veinsmobility 	maxSpeed 	13.999886549604
scalar RSUExampleScenario.node[23].veinsmobility 	totalDistance 	3414.0431589584
scalar RSUExampleScenario.node[23].veinsmobility 	totalCO2Emission 	689.5024336884
scalar RSUExampleScenario.node[24].veinsmobility 	startTime 	72.1
scalar RSUExampleScenario.node[24].veinsmobility 	totalTime 	269.9
scalar RSUExampleScenario.node[24].veinsmobility 	stopTime 	342.1
scalar RSUExampleScenario.node[24].veinsmobility 	minSpeed 	0.25929310879367
scalar RSUExampleScenario.node[24].veinsmobility 	maxSpeed 	13.999984077588
scalar RSUExampleScenario.node[24].veinsmobility 	totalDistance 	3409.989396716
scalar RSUExampleScenario.node[24].veinsmobility 	totalCO2Emission 	689.57084954605
scalar RSUExampleScenario.node[25].veinsmobility 	startTime 	75.1
scalar RSUExampleScenario.node[25].veinsmobility 	totalTime 	270.4
scalar RSUExampleScenario.node[25].veinsmobility 	stopTime 	345.6
scalar RSUExampleScenario.node[25].veinsmobility 	minSpeed 	0.25317076038592
scalar RSUExampleScenario.node[25].veinsmobility 	maxSpeed 	13.999976978686
scalar RSUExampleScenario.node[25].veinsmobility 	totalDistance 	3414.0896155374
scalar RSUExampleScenario.node[25].veinsmobility 	totalCO2Emission 	695.5086693161
scalar RSUExampleScenario.node[26].veinsmobility 	startTime 	78.1
scalar RSUExampleScenario.node[26].veinsmobility 	totalTime 	270.9
scalar RSUExampleScenario.node[26].veinsmobility 	stopTime 	349.1
scalar RSUExampleScenario.node[26].veinsmobility 	minSpeed 	0.25180808866303
scalar RSUExampleScenario.node[26].veinsmobility 	maxSpeed 	13.999998543959
scalar RSUExampleScenario.node[26].veinsmobility 	totalDistance 	3409.6872431897
scalar RSUExampleScenario.node[26].veinsmobility 	totalCO2Emission 	691.4156427984
scalar RSUExampleScenario.node[27].veinsmobility 	startTime 	81.1
scalar RSUExampleScenario.node[27].veinsmobility 	totalTime 	271.5
scalar RSUExampleScenario.node[27].veinsmobility 	stopTime 	352.7
scalar RSUExampleScenario.node[27].veinsmobility 	minSpeed 	0.25861727676401
scalar RSUExampleScenario.node[27].veinsmobility 	maxSpeed 	13.999951991558
scalar RSUExampleScenario.node[27].veinsmobility 	totalDistance 	3414.193075283
scalar RSUExampleScenario.node[27].veinsmobility 	totalCO2Emission 	689.75810638615
scalar RSUExampleScenario.node[28].veinsmobility 	startTime 	84.1
scalar RSUExampleScenario.node[28].veinsmobility 	totalTime 	272.2
scalar RSUExampleScenario.node[28].veinsmobility 	stopTime 	356.4
scalar RSUExampleScenario.node[28].veinsmobility 	minSpeed 	0.25286166057363
scalar RSUExampleScenario.node[28].veinsmobility 	maxSpeed 	13.999938302741
scalar RSUExampleScenario.node[28].veinsmobility 	totalDistance 	3410.1506792035
scalar RSUExampleScenario.node[28].veinsmobility 	totalCO2Emission 	697.3035946726
scalar RSUExampleScenario.node[29].veinsmobility 	startTime 	87.1
scalar RSUExampleScenario.node[29].veinsmobility 	totalTime 	272.8
scalar RSUExampleScenario.node[29].veinsmobility 	stopTime 	360
scalar RSUExampleScenario.node[29].veinsmobility 	minSpeed 	0.25718294095271
scalar RSUExampleScenario.node[29].veinsmobility 	maxSpeed 	13.99996500331
scalar RSUExampleScenario.node[29].veinsmobility 	totalDistance 	3413.6834512048
scalar RSUExampleScenario.node[29].veinsmobility 	totalCO2Emission 	694.4513152361
scalar RSUExampleScenario.node[30].veinsmobility 	startTime 	90.1
scalar RSUExampleScenario.node[30].veinsmobility 	totalTime 	273.4
scalar RSUExampleScenario.node[30].veinsmobility 	stopTime 	363.6
scalar RSUExampleScenario.node[30].veinsmobility 	minSpeed 	0.2479298472777
scalar RSUExampleScenario.node[30].veinsmobility 	maxSpeed 	13.999937503031
scalar RSUExampleScenario.node[30].veinsmobility 	totalDistance 	3409.8456874945
scalar RSUExampleScenario.node[30].veinsmobility 	totalCO2Emission 	698.57046003405
scalar RSUExampleScenario.node[31].veinsmobility 	startTime 	93.1
scalar RSUExampleScenario.node[31].veinsmobility 	totalTime 	274.1
scalar RSUExampleScenario.node[31].veinsmobility 	stopTime 	367.3
scalar RSUExampleScenario.node[31].veinsmobility 	minSpeed 	0.25041070042853
scalar RSUExampleScenario.node[31].veinsmobility 	maxSpeed 	13.99986639942
scalar RSUExampleScenario.node[31].veinsmobility 	totalDistance 	3413.8694922615
scalar RSUExampleScenario.node[31].veinsmobility 	totalCO2Emission 	696.53039263184
scalar RSUExampleScenario.node[32].veinsmobility 	startTime 	96.1
scalar RSUExampleScenario.node[32].veinsmobility 	totalTime 	274.9
scalar RSUExampleScenario.node[32].veinsmobility 	stopTime 	371.1
scalar RSUExampleScenario.node[32].veinsmobility 	minSpeed 	0.25342284130398
scalar RSUExampleScenario.node[32].veinsmobility 	maxSpeed 	13.999953381675
scalar RSUExampleScenario.node[32].veinsmobility 	totalDistance 	3410.03401897
scalar RSUExampleScenario.node[32].veinsmobility 	totalCO2Emission 	695.88144518682
scalar RSUExampleScenario.node[33].veinsmobility 	startTime 	99.1
scalar RSUExampleScenario.node[33].veinsmobility 	totalTime 	275.5
scalar RSUExampleScenario.node[33].veinsmobility 	stopTime 	374.7
scalar RSUExampleScenario.node[33].veinsmobility 	minSpeed 	0.25620685335808
scalar RSUExampleScenario.node[33].veinsmobility 	maxSpeed 	13.999958408885
scalar RSUExampleScenario.node[33].veinsmobility 	totalDistance 	3413.6712685368
scalar RSUExampleScenario.node[33].veinsmobility 	totalCO2Emission 	697.69772402009
scalar RSUExampleScenario.node[34].veinsmobility 	startTime 	102.1
scalar RSUExampleScenario.node[34].veinsmobility 	totalTime 	276.1
scalar RSUExampleScenario.node[34].veinsmobility 	stopTime 	378.3
scalar RSUExampleScenario.node[34].veinsmobility 	minSpeed 	0.24807104920433
scalar RSUExampleScenario.node[34].veinsmobility 	maxSpeed 	13.999976610718
scalar RSUExampleScenario.node[34].veinsmobility 	totalDistance 	3409.9098677561
scalar RSUExampleScenario.node[34].veinsmobility 	totalCO2Emission 	694.52858681178
scalar RSUExampleScenario.node[35].veinsmobility 	startTime 	105.1
scalar RSUExampleScenario.node[35].veinsmobility 	totalTime 	276.7
scalar RSUExampleScenario.node[35].veinsmobility 	stopTime 	381.9
scalar RSUExampleScenario.node[35].veinsmobility 	minSpeed 	0.24717081605224
scalar RSUExampleScenario.node[35].veinsmobility 	maxSpeed 	13.999954881787
scalar RSUExampleScenario.node[35].veinsmobility 	totalDistance 	3413.8594508043
scalar RSUExampleScenario.node[35].veinsmobility 	totalCO2Emission 	697.54277668754
scalar RSUExampleScenario.node[36].veinsmobility 	startTime 	108.1
scalar RSUExampleScenario.node[36].veinsmobility 	totalTime 	277.3
scalar RSUExampleScenario.node[36].veinsmobility 	stopTime 	385.5
scalar RSUExampleScenario.node[36].veinsmobility 	minSpeed 	0.24744067207677
scalar RSUExampleScenario.node[36].veinsmobility 	maxSpeed 	13.999992436606
scalar RSUExampleScenario.node[36].veinsmobility 	totalDistance 	3409.5619351905
scalar RSUExampleScenario.node[36].veinsmobility 	totalCO2Emission 	695.10359018678
scalar RSUExampleScenario.node[37].veinsmobility 	startTime 	111.1
scalar RSUExampleScenario.node[37].veinsmobility 	totalTime 	277.9
scalar RSUExampleScenario.node[37].veinsmobility 	stopTime 	389.1
scalar RSUExampleScenario.node[37].veinsmobility 	minSpeed 	0.24801543215662
scalar RSUExampleScenario.node[37].veinsmobility 	maxSpeed 	13.999977838236
scalar RSUExampleScenario.node[37].veinsmobility 	totalDistance 	3413.7429980435
scalar RSUExampleScenario.node[37].veinsmobility 	totalCO2Emission 	699.36783204772
scalar RSUExampleScenario.node[38].veinsmobility 	startTime 	114.1
scalar RSUExampleScenario.node[38].veinsmobility 	totalTime 	278.6
scalar RSUExampleScenario.node[38].veinsmobility 	stopTime 	392.8
scalar RSUExampleScenario.node[38].veinsmobility 	minSpeed 	0.2555133853124
scalar RSUExampleScenario.node[38].veinsmobility 	maxSpeed 	13.999935156717
scalar RSUExampleScenario.node[38].veinsmobility 	totalDistance 	3409.7468388948
scalar RSUExampleScenario.node[38].veinsmobility 	totalCO2Emission 	700.66171592832
scalar RSUExampleScenario.node[39].veinsmobility 	startTime 	117.1
scalar RSUExampleScenario.node[39].veinsmobility 	totalTime 	279.4
scalar RSUExampleScenario.node[39].veinsmobility 	stopTime 	396.6
scalar RSUExampleScenario.node[39].veinsmobility 	minSpeed 	0.25506852789083
scalar RSUExampleScenario.node[39].veinsmobility 	maxSpeed 	13.999835890019
scalar RSUExampleScenario.node[39].veinsmobility 	totalDistance 	3414.2126858682
scalar RSUExampleScenario.node[39].veinsmobility 	totalCO2Emission 	701.07347656039
scalar RSUExampleScenario.node[40].veinsmobility 	startTime 	120.1
scalar RSUExampleScenario.node[40].veinsmobility 	totalTime 	280.2
scalar RSUExampleScenario.node[40].veinsmobility 	stopTime 	400.4
scalar RSUExampleScenario.node[40].veinsmobility 	minSpeed 	0.25631199666648
scalar RSUExampleScenario.node[40].veinsmobility 	maxSpeed 	13.999800166625
scalar RSUExampleScenario.node[40].veinsmobility 	totalDistance 	3410.2568365342
scalar RSUExampleScenario.node[40].veinsmobility 	totalCO2Emission 	701.7915985306
scalar RSUExampleScenario.node[41].veinsmobility 	startTime 	123.1
scalar RSUExampleScenario.node[41].veinsmobility 	totalTime 	281
scalar RSUExampleScenario.node[41].veinsmobility 	stopTime 	404.2
scalar RSUExampleScenario.node[41].veinsmobility 	minSpeed 	0.25619664717559
scalar RSUExampleScenario.node[41].veinsmobility 	maxSpeed 	13.999998004674
scalar RSUExampleScenario.node[41].veinsmobility 	totalDistance 	3414.2700809045
scalar RSUExampleScenario.node[41].veinsmobility 	totalCO2Emission 	700.58696353473
scalar RSUExampleScenario.node[42].veinsmobility 	startTime 	126.1
scalar RSUExampleScenario.node[42].veinsmobility 	totalTime 	281.8
scalar RSUExampleScenario.node[42].veinsmobility 	stopTime 	408
scalar RSUExampleScenario.node[42].veinsmobility 	minSpeed 	0.25550829383498
scalar RSUExampleScenario.node[42].veinsmobility 	maxSpeed 	13.999791433858
scalar RSUExampleScenario.node[42].veinsmobility 	totalDistance 	3409.9895335226
scalar RSUExampleScenario.node[42].veinsmobility 	totalCO2Emission 	702.65212829753
scalar RSUExampleScenario.node[43].veinsmobility 	startTime 	129.1
scalar RSUExampleScenario.node[43].veinsmobility 	totalTime 	282.6
scalar RSUExampleScenario.node[43].veinsmobility 	stopTime 	411.8
scalar RSUExampleScenario.node[43].veinsmobility 	minSpeed 	0.2578940411855
scalar RSUExampleScenario.node[43].veinsmobility 	maxSpeed 	13.999988873489
scalar RSUExampleScenario.node[43].veinsmobility 	totalDistance 	3410.1920353615
scalar RSUExampleScenario.node[43].veinsmobility 	totalCO2Emission 	711.55852520013
scalar RSUExampleScenario.node[44].veinsmobility 	startTime 	132.1
scalar RSUExampleScenario.node[44].veinsmobility 	totalTime 	283.2
scalar RSUExampleScenario.node[44].veinsmobility 	stopTime 	415.4
scalar RSUExampleScenario.node[44].veinsmobility 	minSpeed 	0.25240033933637
scalar RSUExampleScenario.node[44].veinsmobility 	maxSpeed 	13.999992920924
scalar RSUExampleScenario.node[44].veinsmobility 	totalDistance 	3413.8120655438
scalar RSUExampleScenario.node[44].veinsmobility 	totalCO2Emission 	709.07741676945
scalar RSUExampleScenario.node[45].veinsmobility 	startTime 	135.1
scalar RSUExampleScenario.node[45].veinsmobility 	totalTime 	283.9
scalar RSUExampleScenario.node[45].veinsmobility 	stopTime 	419.1
scalar RSUExampleScenario.node[45].veinsmobility 	minSpeed 	0.25139354707883
scalar RSUExampleScenario.node[45].veinsmobility 	maxSpeed 	13.999986647218
scalar RSUExampleScenario.node[45].veinsmobility 	totalDistance 	3410.1570532651
scalar RSUExampleScenario.node[45].veinsmobility 	totalCO2Emission 	701.86493884073
scalar RSUExampleScenario.node[46].veinsmobility 	startTime 	138.1
scalar RSUExampleScenario.node[46].veinsmobility 	totalTime 	284.6
scalar RSUExampleScenario.node[46].veinsmobility 	stopTime 	422.8
scalar RSUExampleScenario.node[46].veinsmobility 	minSpeed 	0.2488996430242
scalar RSUExampleScenario.node[46].veinsmobility 	maxSpeed 	13.999938201192
scalar RSUExampleScenario.node[46].veinsmobility 	totalDistance 	3414.2377990256
scalar RSUExampleScenario.node[46].veinsmobility 	totalCO2Emission 	703.71342594982
scalar RSUExampleScenario.node[47].veinsmobility 	startTime 	141.1
scalar RSUExampleScenario.node[47].veinsmobility 	totalTime 	285.3
scalar RSUExampleScenario.node[47].veinsmobility 	stopTime 	426.5
scalar RSUExampleScenario.node[47].veinsmobility 	minSpeed 	0.25621888790838
scalar RSUExampleScenario.node[47].veinsmobility 	maxSpeed 	13.999858645913
scalar RSUExampleScenario.node[47].veinsmobility 	totalDistance 	3410.0037395997
scalar RSUExampleScenario.node[47].veinsmobility 	totalCO2Emission 	710.22784787782
scalar RSUExampleScenario.node[48].veinsmobility 	startTime 	144.1
scalar RSUExampleScenario.node[48].veinsmobility 	totalTime 	286.1
scalar RSUExampleScenario.node[48].veinsmobility 	stopTime 	430.3
scalar RSUExampleScenario.node[48].veinsmobility 	minSpeed 	0.25865852346597
scalar RSUExampleScenario.node[48].veinsmobility 	maxSpeed 	13.999991741653
scalar RSUExampleScenario.node[48].veinsmobility 	totalDistance 	3413.9300024263
scalar RSUExampleScenario.node[48].veinsmobility 	totalCO2Emission 	709.20526430247
scalar RSUExampleScenario.node[49].veinsmobility 	startTime 	147.1
scalar RSUExampleScenario.node[49].veinsmobility 	totalTime 	286.8
scalar RSUExampleScenario.node[49].veinsmobility 	stopTime 	434
scalar RSUExampleScenario.node[49].veinsmobility 	minSpeed 	0.25692162512452
scalar RSUExampleScenario.node[49].veinsmobility 	maxSpeed 	13.999972616616
scalar RSUExampleScenario.node[49].veinsmobility 	totalDistance 	3409.6912127584
scalar RSUExampleScenario.node[49].veinsmobility 	totalCO2Emission 	713.08423842855
scalar RSUExampleScenario.node[50].veinsmobility 	startTime 	150.1
scalar RSUExampleScenario.node[50].veinsmobility 	totalTime 	287.4
scalar RSUExampleScenario.node[50].veinsmobility 	stopTime 	437.6
scalar RSUExampleScenario.node[50].veinsmobility 	minSpeed 	0.25240407047677
scalar RSUExampleScenario.node[50].veinsmobility 	maxSpeed 	13.999905372446
scalar RSUExampleScenario.node[50].veinsmobility 	totalDistance 	3413.5505033378
scalar RSUExampleScenario.node[50].veinsmobility 	totalCO2Emission 	708.10932564814
scalar RSUExampleScenario.node[51].veinsmobility 	startTime 	153.1
scalar RSUExampleScenario.node[51].veinsmobility 	totalTime 	288.1
scalar RSUExampleScenario.node[51].veinsmobility 	stopTime 	441.3
scalar RSUExampleScenario.node[51].veinsmobility 	minSpeed 	0.25976635094918
scalar RSUExampleScenario.node[51].veinsmobility 	maxSpeed 	13.999977511221
scalar RSUExampleScenario.node[51].veinsmobility 	totalDistance 	3409.8087720632
scalar RSUExampleScenario.node[51].veinsmobility 	totalCO2Emission 	707.16504967349
scalar RSUExampleScenario.node[52].veinsmobility 	startTime 	156.1
scalar RSUExampleScenario.node[52].veinsmobility 	totalTime 	288.8
scalar RSUExampleScenario.node[52].veinsmobility 	stopTime 	445
scalar RSUExampleScenario.node[52].veinsmobility 	minSpeed 	0.24965828092024
scalar RSUExampleScenario.node[52].veinsmobility 	maxSpeed 	13.999966482869
scalar RSUExampleScenario.node[52].veinsmobility 	totalDistance 	3413.7233939649
scalar RSUExampleScenario.node[52].veinsmobility 	totalCO2Emission 	708.67526926687
scalar RSUExampleScenario.node[53].veinsmobility 	startTime 	159.1
scalar RSUExampleScenario.node[53].veinsmobility 	totalTime 	289.5
scalar RSUExampleScenario.node[53].veinsmobility 	stopTime 	448.7
scalar RSUExampleScenario.node[53].veinsmobility 	minSpeed 	0.25377222793875
scalar RSUExampleScenario.node[53].veinsmobility 	maxSpeed 	13.999995056179
scalar RSUExampleScenario.node[53].veinsmobility 	totalDistance 	3409.6672456148
scalar RSUExampleScenario.node[53].veinsmobility 	totalCO2Emission 	707.62856655896
scalar RSUExampleScenario.node[54].veinsmobility 	startTime 	162.1
scalar RSUExampleScenario.node[54].veinsmobility 	totalTime 	290.3
scalar RSUExampleScenario.node[54].veinsmobility 	stopTime 	452.5
scalar RSUExampleScenario.node[54].veinsmobility 	minSpeed 	0.25286356207496
scalar RSUExampleScenario.node[54].veinsmobility 	maxSpeed 	13.999903956207
scalar RSUExampleScenario.node[54].veinsmobility 	totalDistance 	3414.0961840897
scalar RSUExampleScenario.node[54].veinsmobility 	totalCO2Emission 	710.1726102631
scalar RSUExampleScenario.node[55].veinsmobility 	startTime 	165.1
scalar RSUExampleScenario.node[55].veinsmobility 	totalTime 	291
scalar RSUExampleScenario.node[55].veinsmobility 	stopTime 	456.2
scalar RSUExampleScenario.node[55].veinsmobility 	minSpeed 	0.25419120430318
scalar RSUExampleScenario.node[55].veinsmobility 	maxSpeed 	13.999972716621
scalar RSUExampleScenario.node[55].veinsmobility 	totalDistance 	3409.7112263618
scalar RSUExampleScenario.node[55].veinsmobility 	totalCO2Emission 	712.16535704065
scalar RSUExampleScenario.node[56].veinsmobility 	startTime 	168.1
scalar RSUExampleScenario.node[56].veinsmobility 	totalTime 	291.7
scalar RSUExampleScenario.node[56].veinsmobility 	stopTime 	459.9
scalar RSUExampleScenario.node[56].veinsmobility 	minSpeed 	0.24858274045261
scalar RSUExampleScenario.node[56].veinsmobility 	maxSpeed 	13.999869207866
scalar RSUExampleScenario.node[56].veinsmobility 	totalDistance 	3414.2374505897
scalar RSUExampleScenario.node[56].veinsmobility 	totalCO2Emission 	715.43511484883
scalar RSUExampleScenario.node[57].veinsmobility 	startTime 	171.1
scalar RSUExampleScenario.node[57].veinsmobility 	totalTime 	292.4
scalar RSUExampleScenario.node[57].veinsmobility 	stopTime 	463.6
scalar RSUExampleScenario.node[57].veinsmobility 	minSpeed 	0.25628799243318
scalar RSUExampleScenario.node[57].veinsmobility 	maxSpeed 	13.999947626279
scalar RSUExampleScenario.node[57].veinsmobility 	totalDistance 	3409.6308704687
scalar RSUExampleScenario.node[57].veinsmobility 	totalCO2Emission 	714.16589403491
scalar RSUExampleScenario.node[58].veinsmobility 	startTime 	174.1
scalar RSUExampleScenario.node[58].veinsmobility 	totalTime 	293.1
scalar RSUExampleScenario.node[58].veinsmobility 	stopTime 	467.3
scalar RSUExampleScenario.node[58].veinsmobility 	minSpeed 	0.25201090397616
scalar RSUExampleScenario.node[58].veinsmobility 	maxSpeed 	13.9999983306
scalar RSUExampleScenario.node[58].veinsmobility 	totalDistance 	3413.7818717349
scalar RSUExampleScenario.node[58].veinsmobility 	totalCO2Emission 	715.05367967601
scalar RSUExampleScenario.node[59].veinsmobility 	startTime 	177.1
scalar RSUExampleScenario.node[59].veinsmobility 	totalTime 	293.7
scalar RSUExampleScenario.node[59].veinsmobility 	stopTime 	470.9
scalar RSUExampleScenario.node[59].veinsmobility 	minSpeed 	0.25694783723471
scalar RSUExampleScenario.node[59].veinsmobility 	maxSpeed 	13.999850089457
scalar RSUExampleScenario.node[59].veinsmobility 	totalDistance 	3409.5638218468
scalar RSUExampleScenario.node[59].veinsmobility 	totalCO2Emission 	718.76438197428
scalar RSUExampleScenario.node[60].veinsmobility 	startTime 	180.1
scalar RSUExampleScenario.node[60].veinsmobility 	totalTime 	294.4
scalar RSUExampleScenario.node[60].veinsmobility 	stopTime 	474.6
scalar RSUExampleScenario.node[60].veinsmobility 	minSpeed 	0.25558056993294
scalar RSUExampleScenario.node[60].veinsmobility 	maxSpeed 	13.999960474947
scalar RSUExampleScenario.node[60].veinsmobility 	totalDistance 	3413.7848347375
scalar RSUExampleScenario.node[60].veinsmobility 	totalCO2Emission 	715.00231776459
scalar RSUExampleScenario.node[61].veinsmobility 	startTime 	183.1
scalar RSUExampleScenario.node[61].veinsmobility 	totalTime 	295.1
scalar RSUExampleScenario.node[61].veinsmobility 	stopTime 	478.3
scalar RSUExampleScenario.node[61].veinsmobility 	minSpeed 	0.25137689408823
scalar RSUExampleScenario.node[61].veinsmobility 	maxSpeed 	13.999945384057
scalar RSUExampleScenario.node[61].veinsmobility 	totalDistance 	3410.1109069983
scalar RSUExampleScenario.node[61].veinsmobility 	totalCO2Emission 	718.8030904563
scalar RSUExampleScenario.node[62].veinsmobility 	startTime 	186.1
scalar RSUExampleScenario.node[62].veinsmobility 	totalTime 	295.8
scalar RSUExampleScenario.node[62].veinsmobility 	stopTime 	482
scalar RSUExampleScenario.node[62].veinsmobility 	minSpeed 	0.2568248586501
scalar RSUExampleScenario.node[62].veinsmobility 	maxSpeed 	13.999975569046
scalar RSUExampleScenario.node[62].veinsmobility 	totalDistance 	3413.8091188892
scalar RSUExampleScenario.node[62].veinsmobility 	totalCO2Emission 	714.56455840853
scalar RSUExampleScenario.node[63].veinsmobility 	startTime 	189.1
scalar RSUExampleScenario.node[63].veinsmobility 	totalTime 	296.4
scalar RSUExampleScenario.node[63].veinsmobility 	stopTime 	485.6
scalar RSUExampleScenario.node[63].veinsmobility 	minSpeed 	0.25098409892432
scalar RSUExampleScenario.node[63].veinsmobility 	maxSpeed 	13.999968115918
scalar RSUExampleScenario.node[63].veinsmobility 	totalDistance 	3409.6521445102
scalar RSUExampleScenario.node[63].veinsmobility 	totalCO2Emission 	714.08004304957
scalar RSUExampleScenario.node[64].veinsmobility 	startTime 	192.1
scalar RSUExampleScenario.node[64].veinsmobility 	totalTime 	297.1
scalar RSUExampleScenario.node[64].veinsmobility 	stopTime 	489.3
scalar RSUExampleScenario.node[64].veinsmobility 	minSpeed 	0.24782813222101
scalar RSUExampleScenario.node[64].veinsmobility 	maxSpeed 	13.999926076322
scalar RSUExampleScenario.node[64].veinsmobility 	totalDistance 	3414.0947764485
scalar RSUExampleScenario.node[64].veinsmobility 	totalCO2Emission 	718.95461082253
scalar RSUExampleScenario.node[65].veinsmobility 	startTime 	195.1
scalar RSUExampleScenario.node[65].veinsmobility 	totalTime 	297.8
scalar RSUExampleScenario.node[65].veinsmobility 	stopTime 	493
scalar RSUExampleScenario.node[65].veinsmobility 	minSpeed 	0.25239837867324
scalar RSUExampleScenario.node[65].veinsmobility 	maxSpeed 	13.999979240582
scalar RSUExampleScenario.node[65].veinsmobility 	totalDistance 	3409.8787434311
scalar RSUExampleScenario.node[65].veinsmobility 	totalCO2Emission 	714.32680633825
scalar RSUExampleScenario.node[66].veinsmobility 	startTime 	198.1
scalar RSUExampleScenario.node[66].veinsmobility 	totalTime 	298.5
scalar RSUExampleScenario.node[66].veinsmobility 	stopTime 	496.7
scalar RSUExampleScenario.node[66].veinsmobility 	minSpeed 	0.25994907322153
scalar RSUExampleScenario.node[66].veinsmobility 	maxSpeed 	13.999872117981
scalar RSUExampleScenario.node[66].veinsmobility 	totalDistance 	3413.6830397964
scalar RSUExampleScenario.node[66].veinsmobility 	totalCO2Emission 	720.80532444036
scalar RSUExampleScenario.node[67].veinsmobility 	startTime 	201.1
scalar RSUExampleScenario.node[67].veinsmobility 	totalTime 	299.2
scalar RSUExampleScenario.node[67].veinsmobility 	stopTime 	500.4
scalar RSUExampleScenario.node[67].veinsmobility 	minSpeed 	0.25104293466033
scalar RSUExampleScenario.node[67].veinsmobility 	maxSpeed 	13.999941411142
scalar RSUExampleScenario.node[67].veinsmobility 	totalDistance 	3410.1975958726
scalar RSUExampleScenario.node[67].veinsmobility 	totalCO2Emission 	725.26356016522
scalar RSUExampleScenario.node[68].veinsmobility 	startTime 	204.1
scalar RSUExampleScenario.node[68].veinsmobility 	totalTime 	299.9
scalar RSUExampleScenario.node[68].veinsmobility 	stopTime 	504.1
scalar RSUExampleScenario.node[68].veinsmobility 	minSpeed 	0.25200852878694
scalar RSUExampleScenario.node[68].veinsmobility 	maxSpeed 	13.999877366722
scalar RSUExampleScenario.node[68].veinsmobility 	totalDistance 	3414.2703720238
scalar RSUExampleScenario.node[68].veinsmobility 	totalCO2Emission 	718.62051980726
scalar RSUExampleScenario.node[69].veinsmobility 	startTime 	207.1
scalar RSUExampleScenario.node[69].veinsmobility 	totalTime 	300.6
scalar RSUExampleScenario.node[69].veinsmobility 	stopTime 	507.8
scalar RSUExampleScenario.node[69].veinsmobility 	minSpeed 	0.2533982549659
scalar RSUExampleScenario.node[69].veinsmobility 	maxSpeed 	13.999886759724
scalar RSUExampleScenario.node[69].veinsmobility 	totalDistance 	3409.8096554842
scalar RSUExampleScenario.node[69].veinsmobility 	totalCO2Emission 	718.26213305588
scalar RSUExampleScenario.node[70].veinsmobility 	startTime 	210.1
scalar RSUExampleScenario.node[70].veinsmobility 	totalTime 	301.4
scalar RSUExampleScenario.node[70].veinsmobility 	stopTime 	511.6
scalar RSUExampleScenario.node[70].veinsmobility 	minSpeed 	0.24880464169988
scalar RSUExampleScenario.node[70].veinsmobility 	maxSpeed 	13.999973622723
scalar RSUExampleScenario.node[70].veinsmobility 	totalDistance 	3414.121777344
scalar RSUExampleScenario.node[70].veinsmobility 	totalCO2Emission 	723.96410254553
scalar RSUExampleScenario.node[71].veinsmobility 	startTime 	213.1
scalar RSUExampleScenario.node[71].veinsmobility 	totalTime 	302.2
scalar RSUExampleScenario.node[71].veinsmobility 	stopTime 	515.4
scalar RSUExampleScenario.node[71].veinsmobility 	minSpeed 	0.2597087204752
scalar RSUExampleScenario.node[71].veinsmobility 	maxSpeed 	13.999823266272
scalar RSUExampleScenario.node[71].veinsmobility 	totalDistance 	3410.0750475715
scalar RSUExampleScenario.node[71].veinsmobility 	totalCO2Emission 	720.26180188658
scalar RSUExampleScenario.node[72].veinsmobility 	startTime 	216.1
scalar RSUExampleScenario.node[72].veinsmobility 	totalTime 	302.9
scalar RSUExampleScenario.node[72].veinsmobility 	stopTime 	519.1
scalar RSUExampleScenario.node[72].veinsmobility 	minSpeed 	0.25525172897242
scalar RSUExampleScenario.node[72].veinsmobility 	maxSpeed 	13.999991616646
scalar RSUExampleScenario.node[72].veinsmobility 	totalDistance 	3410.0152425339
scalar RSUExampleScenario.node[72].veinsmobility 	totalCO2Emission 	722.62688899779
scalar RSUExampleScenario.node[73].veinsmobility 	startTime 	219.1
scalar RSUExampleScenario.node[73].veinsmobility 	totalTime 	303.6
scalar RSUExampleScenario.node[73].veinsmobility 	stopTime 	522.8
scalar RSUExampleScenario.node[73].veinsmobility 	minSpeed 	0.2548805645355
scalar RSUExampleScenario.node[73].veinsmobility 	maxSpeed 	13.999993587062
scalar RSUExampleScenario.node[73].veinsmobility 	totalDistance 	3413.865709897
scalar RSUExampleScenario.node[73].veinsmobility 	totalCO2Emission 	726.33714564744
scalar RSUExampleScenario.node[74].veinsmobility 	startTime 	222.1
scalar RSUExampleScenario.node[74].veinsmobility 	totalTime 	304.3
scalar RSUExampleScenario.node[74].veinsmobility 	stopTime 	526.5
scalar RSUExampleScenario.node[74].veinsmobility 	minSpeed 	0.25167776539177
scalar RSUExampleScenario.node[74].veinsmobility 	maxSpeed 	13.999855012454
scalar RSUExampleScenario.node[74].veinsmobility 	totalDistance 	3409.8057813022
scalar RSUExampleScenario.node[74].veinsmobility 	totalCO2Emission 	725.66604077415
scalar RSUExampleScenario.node[75].veinsmobility 	startTime 	225.1
scalar RSUExampleScenario.node[75].veinsmobility 	totalTime 	305
scalar RSUExampleScenario.node[75].veinsmobility 	stopTime 	530.2
scalar RSUExampleScenario.node[75].veinsmobility 	minSpeed 	0.24988963547931
scalar RSUExampleScenario.node[75].veinsmobility 	maxSpeed 	13.999757731759
scalar RSUExampleScenario.node[75].veinsmobility 	totalDistance 	3414.1105131112
scalar RSUExampleScenario.node[75].veinsmobility 	totalCO2Emission 	725.28218322576
scalar RSUExampleScenario.node[76].veinsmobility 	startTime 	228.1
scalar RSUExampleScenario.node[76].veinsmobility 	totalTime 	305.7
scalar RSUExampleScenario.node[76].veinsmobility 	stopTime 	533.9
scalar RSUExampleScenario.node[76].veinsmobility 	minSpeed 	0.24964417736861
scalar RSUExampleScenario.node[76].veinsmobility 	maxSpeed 	13.999944412
scalar RSUExampleScenario.node[76].veinsmobility 	totalDistance 	3410.0002086983
scalar RSUExampleScenario.node[76].veinsmobility 	totalCO2Emission 	731.20206276207
scalar RSUExampleScenario.node[77].veinsmobility 	startTime 	231.1
scalar RSUExampleScenario.node[77].veinsmobility 	totalTime 	306.4
scalar RSUExampleScenario.node[77].veinsmobility 	stopTime 	537.6
scalar RSUExampleScenario.node[77].veinsmobility 	minSpeed 	0.24948219168582
scalar RSUExampleScenario.node[77].veinsmobility 	maxSpeed 	13.99996894747
scalar RSUExampleScenario.node[77].veinsmobility 	totalDistance 	3413.7152466445
scalar RSUExampleScenario.node[77].veinsmobility 	totalCO2Emission 	727.83452270094
scalar RSUExampleScenario.node[78].veinsmobility 	startTime 	234.1
scalar RSUExampleScenario.node[78].veinsmobility 	totalTime 	307.1
scalar RSUExampleScenario.node[78].veinsmobility 	stopTime 	541.3
scalar RSUExampleScenario.node[78].veinsmobility 	minSpeed 	0.25038056438603
scalar RSUExampleScenario.node[78].veinsmobility 	maxSpeed 	13.999855259925
scalar RSUExampleScenario.node[78].veinsmobility 	totalDistance 	3409.6181452337
scalar RSUExampleScenario.node[78].veinsmobility 	totalCO2Emission 	723.67945931498
scalar RSUExampleScenario.node[79].veinsmobility 	startTime 	237.1
scalar RSUExampleScenario.node[79].veinsmobility 	totalTime 	307.8
scalar RSUExampleScenario.node[79].veinsmobility 	stopTime 	545
scalar RSUExampleScenario.node[79].veinsmobility 	minSpeed 	0.25487304134644
scalar RSUExampleScenario.node[79].veinsmobility 	maxSpeed 	13.999896327555
scalar RSUExampleScenario.node[79].veinsmobility 	totalDistance 	3413.976939858
scalar RSUExampleScenario.node[79].veinsmobility 	totalCO2Emission 	729.62267698853
scalar RSUExampleScenario.node[80].veinsmobility 	startTime 	240.1
scalar RSUExampleScenario.node[80].veinsmobility 	totalTime 	308.5
scalar RSUExampleScenario.node[80].veinsmobility 	stopTime 	548.7
scalar RSUExampleScenario.node[80].veinsmobility 	minSpeed 	0.24987922081398
scalar RSUExampleScenario.node[80].veinsmobility 	maxSpeed 	13.99982697289
scalar RSUExampleScenario.node[80].veinsmobility 	totalDistance 	3410.0978110789
scalar RSUExampleScenario.node[80].veinsmobility 	totalCO2Emission 	733.75261960649
scalar RSUExampleScenario.node[81].veinsmobility 	startTime 	243.1
scalar RSUExampleScenario.node[81].veinsmobility 	totalTime 	309.2
scalar RSUExampleScenario.node[81].veinsmobility 	stopTime 	552.4
scalar RSUExampleScenario.node[81].veinsmobility 	minSpeed 	0.25981997211697
scalar RSUExampleScenario.node[81].veinsmobility 	maxSpeed 	13.999993178595
scalar RSUExampleScenario.node[81].veinsmobility 	totalDistance 	3414.0552897023
scalar RSUExampleScenario.node[81].veinsmobility 	totalCO2Emission 	727.07661233563
scalar RSUExampleScenario.node[82].veinsmobility 	startTime 	246.1
scalar RSUExampleScenario.node[82].veinsmobility 	totalTime 	309.9
scalar RSUExampleScenario.node[82].veinsmobility 	stopTime 	556.1
scalar RSUExampleScenario.node[82].veinsmobility 	minSpeed 	0.25469684267812
scalar RSUExampleScenario.node[82].veinsmobility 	maxSpeed 	13.999927169783
scalar RSUExampleScenario.node[82].veinsmobility 	totalDistance 	3409.7952972608
scalar RSUExampleScenario.node[82].veinsmobility 	totalCO2Emission 	729.33710106786
scalar RSUExampleScenario.node[83].veinsmobility 	startTime 	249.1
scalar RSUExampleScenario.node[83].veinsmobility 	totalTime 	310.6
scalar RSUExampleScenario.node[83].veinsmobility 	stopTime 	559.8
scalar RSUExampleScenario.node[83].veinsmobility 	minSpeed 	0.24821849574894
scalar RSUExampleScenario.node[83].veinsmobility 	maxSpeed 	13.999917243035
scalar RSUExampleScenario.node[83].veinsmobility 	totalDistance 	3413.9465472087
scalar RSUExampleScenario.node[83].veinsmobility 	totalCO2Emission 	733.59286883519
scalar RSUExampleScenario.node[84].veinsmobility 	startTime 	252.1
scalar RSUExampleScenario.node[84].veinsmobility 	totalTime 	311.3
scalar RSUExampleScenario.node[84].veinsmobility 	stopTime 	563.5
scalar RSUExampleScenario.node[84].veinsmobility 	minSpeed 	0.25353569979127
scalar RSUExampleScenario.node[84].veinsmobility 	maxSpeed 	13.999909767054
scalar RSUExampleScenario.node[84].veinsmobility 	totalDistance 	3409.9857333635
scalar RSUExampleScenario.node[84].veinsmobility 	totalCO2Emission 	730.36713159899
scalar RSUExampleScenario.node[85].veinsmobility 	startTime 	255.1
scalar RSUExampleScenario.node[85].veinsmobility 	totalTime 	311.9
scalar RSUExampleScenario.node[85].veinsmobility 	stopTime 	567.1
scalar RSUExampleScenario.node[85].veinsmobility 	minSpeed 	0.25325060064974
scalar RSUExampleScenario.node[85].veinsmobility 	maxSpeed 	13.999933625127
scalar RSUExampleScenario.node[85].veinsmobility 	totalDistance 	3413.996696083
scalar RSUExampleScenario.node[85].veinsmobility 	totalCO2Emission 	735.3769423617
scalar RSUExampleScenario.node[86].veinsmobility 	startTime 	258.1
scalar RSUExampleScenario.node[86].veinsmobility 	totalTime 	312.6
scalar RSUExampleScenario.node[86].veinsmobility 	stopTime 	570.8
scalar RSUExampleScenario.node[86].veinsmobility 	minSpeed 	0.25224148168927
scalar RSUExampleScenario.node[86].veinsmobility 	maxSpeed 	13.999968157022
scalar RSUExampleScenario.node[86].veinsmobility 	totalDistance 	3409.4625870675
scalar RSUExampleScenario.node[86].veinsmobility 	totalCO2Emission 	734.05197034994
scalar RSUExampleScenario.node[87].veinsmobility 	startTime 	261.1
scalar RSUExampleScenario.node[87].veinsmobility 	totalTime 	313.3
scalar RSUExampleScenario.node[87].veinsmobility 	stopTime 	574.5
scalar RSUExampleScenario.node[87].veinsmobility 	minSpeed 	0.2554285767437
scalar RSUExampleScenario.node[87].veinsmobility 	maxSpeed 	13.999969489146
scalar RSUExampleScenario.node[87].veinsmobility 	totalDistance 	3414.2786296857
scalar RSUExampleScenario.node[87].veinsmobility 	totalCO2Emission 	729.87929883115
scalar RSUExampleScenario.node[88].veinsmobility 	startTime 	264.1
scalar RSUExampleScenario.node[88].veinsmobility 	totalTime 	314
scalar RSUExampleScenario.node[88].veinsmobility 	stopTime 	578.2
scalar RSUExampleScenario.node[88].veinsmobility 	minSpeed 	0.25493974008411
scalar RSUExampleScenario.node[88].veinsmobility 	maxSpeed 	13.99990277288
scalar RSUExampleScenario.node[88].veinsmobility 	totalDistance 	3410.1251765457
scalar RSUExampleScenario.node[88].veinsmobility 	totalCO2Emission 	737.37947921868
scalar RSUExampleScenario.node[89].veinsmobility 	startTime 	267.1
scalar RSUExampleScenario.node[89].veinsmobility 	totalTime 	314.7
scalar RSUExampleScenario.node[89].veinsmobility 	stopTime 	581.9
scalar RSUExampleScenario.node[89].veinsmobility 	minSpeed 	0.25048954122234
scalar RSUExampleScenario.node[89].veinsmobility 	maxSpeed 	13.999886066224
scalar RSUExampleScenario.node[89].veinsmobility 	totalDistance 	3413.9406366038
scalar RSUExampleScenario.node[89].veinsmobility 	totalCO2Emission 	736.10829892836
scalar RSUExampleScenario.node[90].veinsmobility 	startTime 	270.1
scalar RSUExampleScenario.node[90].veinsmobility 	totalTime 	315.4
scalar RSUExampleScenario.node[90].veinsmobility 	stopTime 	585.6
scalar RSUExampleScenario.node[90].veinsmobility 	minSpeed 	0.25783524086606
scalar RSUExampleScenario.node[90].veinsmobility 	maxSpeed 	13.999966571101
scalar RSUExampleScenario.node[90].veinsmobility 	totalDistance 	3410.1221113699
scalar RSUExampleScenario.node[90].veinsmobility 	totalCO2Emission 	739.95960061594
scalar RSUExampleScenario.node[91].veinsmobility 	startTime 	273.1
scalar RSUExampleScenario.node[91].veinsmobility 	totalTime 	316.1
scalar RSUExampleScenario.node[91].veinsmobility 	stopTime 	589.3
scalar RSUExampleScenario.node[91].veinsmobility 	minSpeed 	0.25520915432926
scalar RSUExampleScenario.node[91].veinsmobility 	maxSpeed 	13.999978418443
scalar RSUExampleScenario.node[91].veinsmobility 	totalDistance 	3413.8598781052
scalar RSUExampleScenario.node[91].veinsmobility 	totalCO2Emission 	735.46439674579
scalar RSUExampleScenario.node[92].veinsmobility 	startTime 	276.1
scalar RSUExampleScenario.node[92].veinsmobility 	totalTime 	316.8
scalar RSUExampleScenario.node[92].veinsmobility 	stopTime 	593
scalar RSUExampleScenario.node[92].veinsmobility 	minSpeed 	0.25418462305982
scalar RSUExampleScenario.node[92].veinsmobility 	maxSpeed 	13.999832021983
scalar RSUExampleScenario.node[92].veinsmobility 	totalDistance 	3409.498052539
scalar RSUExampleScenario.node[92].veinsmobility 	totalCO2Emission 	740.7267045538
scalar RSUExampleScenario.node[93].veinsmobility 	startTime 	279.1
scalar RSUExampleScenario.node[93].veinsmobility 	totalTime 	317.5
scalar RSUExampleScenario.node[93].veinsmobility 	stopTime 	596.7
scalar RSUExampleScenario.node[93].veinsmobility 	minSpeed 	0.25460802457016
scalar RSUExampleScenario.node[93].veinsmobility 	maxSpeed 	13.999956896454
scalar RSUExampleScenario.node[93].veinsmobility 	totalDistance 	3414.1974495534
scalar RSUExampleScenario.node[93].veinsmobility 	totalCO2Emission 	739.12706446566
scalar RSUExampleScenario.node[94].veinsmobility 	startTime 	282.1
scalar RSUExampleScenario.node[94].veinsmobility 	totalTime 	318.3
scalar RSUExampleScenario.node[94].veinsmobility 	stopTime 	600.5
scalar RSUExampleScenario.node[94].veinsmobility 	minSpeed 	0.2470395144592
scalar RSUExampleScenario.node[94].veinsmobility 	maxSpeed 	13.999837629157
scalar RSUExampleScenario.node[94].veinsmobility 	totalDistance 	3410.0791707408
scalar RSUExampleScenario.node[94].veinsmobility 	totalCO2Emission 	738.74409569262
scalar RSUExampleScenario.node[95].veinsmobility 	startTime 	285.1
scalar RSUExampleScenario.node[95].veinsmobility 	totalTime 	319
scalar RSUExampleScenario.node[95].veinsmobility 	stopTime 	604.2
scalar RSUExampleScenario.node[95].veinsmobility 	minSpeed 	0.24928590765269
scalar RSUExampleScenario.node[95].veinsmobility 	maxSpeed 	13.999934701638
scalar RSUExampleScenario.node[95].veinsmobility 	totalDistance 	3413.5992273512
scalar RSUExampleScenario.node[95].veinsmobility 	totalCO2Emission 	740.78477462313
scalar RSUExampleScenario.node[96].veinsmobility 	startTime 	288.1
scalar RSUExampleScenario.node[96].veinsmobility 	totalTime 	319.7
scalar RSUExampleScenario.node[96].veinsmobility 	stopTime 	607.9
scalar RSUExampleScenario.node[96].veinsmobility 	minSpeed 	0.2575864814173
scalar RSUExampleScenario.node[96].veinsmobility 	maxSpeed 	13.999792502136
scalar RSUExampleScenario.node[96].veinsmobility 	totalDistance 	3410.0196679457
scalar RSUExampleScenario.node[96].veinsmobility 	totalCO2Emission 	739.46845732186
scalar RSUExampleScenario.node[97].veinsmobility 	startTime 	291.1
scalar RSUExampleScenario.node[97].veinsmobility 	totalTime 	320.4
scalar RSUExampleScenario.node[97].veinsmobility 	stopTime 	611.6
scalar RSUExampleScenario.node[97].veinsmobility 	minSpeed 	0.25116615659348
scalar RSUExampleScenario.node[97].veinsmobility 	maxSpeed 	13.99994105628
scalar RSUExampleScenario.node[97].veinsmobility 	totalDistance 	3413.8379701134
scalar RSUExampleScenario.node[97].veinsmobility 	totalCO2Emission 	736.78603604401
scalar RSUExampleScenario.node[98].veinsmobility 	startTime 	294.1
scalar RSUExampleScenario.node[98].veinsmobility 	totalTime 	321.1
scalar RSUExampleScenario.node[98].veinsmobility 	stopTime 	615.3
scalar RSUExampleScenario.node[98].veinsmobility 	minSpeed 	0.24702299425728
scalar RSUExampleScenario.node[98].veinsmobility 	maxSpeed 	13.999894991496
scalar RSUExampleScenario.node[98].veinsmobility 	totalDistance 	3409.4399282034
scalar RSUExampleScenario.node[98].veinsmobility 	totalCO2Emission 	740.30092287146
scalar RSUExampleScenario.node[99].veinsmobility 	startTime 	297.1
scalar RSUExampleScenario.node[99].veinsmobility 	totalTime 	321.7
scalar RSUExampleScenario.node[99].veinsmobility 	stopTime 	618.9
scalar RSUExampleScenario.node[99].veinsmobility 	minSpeed 	0.25530789373745
scalar RSUExampleScenario.node[99].veinsmobility 	maxSpeed 	13.999977233633
scalar RSUExampleScenario.node[99].veinsmobility 	totalDistance 	3409.709896633
scalar RSUExampleScenario.node[99].veinsmobility 	totalCO2Emission 	742.22778678819
scalar RSUExampleScenario.node[100].veinsmobility 	startTime 	300.1
scalar RSUExampleScenario.node[100].veinsmobility 	totalTime 	322.4
scalar RSUExampleScenario.node[100].veinsmobility 	stopTime 	622.6
scalar RSUExampleScenario.node[100].veinsmobility 	minSpeed 	0.24748300944618
scalar RSUExampleScenario.node[100].veinsmobility 	maxSpeed 	13.999979279779
scalar RSUExampleScenario.node[100].veinsmobility 	totalDistance 	3414.0266578613
scalar RSUExampleScenario.node[100].veinsmobility 	totalCO2Emission 	745.79328094672
scalar RSUExampleScenario.node[101].veinsmobility 	startTime 	303.1
scalar RSUExampleScenario.node[101].veinsmobility 	totalTime 	323.1
scalar RSUExampleScenario.node[101].veinsmobility 	stopTime 	626.3
scalar RSUExampleScenario.node[101].veinsmobility 	minSpeed 	0.25298598726094
scalar RSUExampleScenario.node[101].veinsmobility 	maxSpeed 	13.999831404274
scalar RSUExampleScenario.node[101].veinsmobility 	totalDistance 	3409.991508295
scalar RSUExampleScenario.node[101].veinsmobility 	totalCO2Emission 	745.09487038723
scalar RSUExampleScenario.node[102].veinsmobility 	startTime 	306.1
scalar RSUExampleScenario.node[102].veinsmobility 	totalTime 	323.7
scalar RSUExampleScenario.node[102].veinsmobility 	stopTime 	629.9
scalar RSUExampleScenario.node[102].veinsmobility 	minSpeed 	0.24993161355564
scalar RSUExampleScenario.node[102].veinsmobility 	maxSpeed 	13.999609018799
scalar RSUExampleScenario.node[102].veinsmobility 	totalDistance 	3413.9313431645
scalar RSUExampleScenario.node[102].veinsmobility 	totalCO2Emission 	746.73421324067
scalar RSUExampleScenario.node[103].veinsmobility 	startTime 	309.1
scalar RSUExampleScenario.node[103].veinsmobility 	totalTime 	324.3
scalar RSUExampleScenario.node[103].veinsmobility 	stopTime 	633.5
scalar RSUExampleScenario.node[103].veinsmobility 	minSpeed 	0.25990614389814
scalar RSUExampleScenario.node[103].veinsmobility 	maxSpeed 	13.999857075217
scalar RSUExampleScenario.node[103].veinsmobility 	totalDistance 	3409.6383404843
scalar RSUExampleScenario.node[103].veinsmobility 	totalCO2Emission 	744.61043744641
scalar RSUExampleScenario.node[104].veinsmobility 	startTime 	312.1
scalar RSUExampleScenario.node[104].veinsmobility 	totalTime 	325
scalar RSUExampleScenario.node[104].veinsmobility 	stopTime 	637.2
scalar RSUExampleScenario.node[104].veinsmobility 	minSpeed 	0.25268640640262
scalar RSUExampleScenario.node[104].veinsmobility 	maxSpeed 	13.999975263188
scalar RSUExampleScenario.node[104].veinsmobility 	totalDistance 	3414.1969853591
scalar RSUExampleScenario.node[104].veinsmobility 	totalCO2Emission 	749.2858117233
scalar RSUExampleScenario.node[105].veinsmobility 	startTime 	315.1
scalar RSUExampleScenario.node[105].veinsmobility 	totalTime 	325.7
scalar RSUExampleScenario.node[105].veinsmobility 	stopTime 	640.9
scalar RSUExampleScenario.node[105].veinsmobility 	minSpeed 	0.25471568215825
scalar RSUExampleScenario.node[105].veinsmobility 	maxSpeed 	13.99990573436
scalar RSUExampleScenario.node[105].veinsmobility 	totalDistance 	3409.8732113495
scalar RSUExampleScenario.node[105].veinsmobility 	totalCO2Emission 	750.63581442407
scalar RSUExampleScenario.node[106].veinsmobility 	startTime 	318.1
scalar RSUExampleScenario.node[106].veinsmobility 	totalTime 	326.4
scalar RSUExampleScenario.node[106].veinsmobility 	stopTime 	644.6
scalar RSUExampleScenario.node[106].veinsmobility 	minSpeed 	0.25081747565977
scalar RSUExampleScenario.node[106].veinsmobility 	maxSpeed 	13.999981950142
scalar RSUExampleScenario.node[106].veinsmobility 	totalDistance 	3413.773509091
scalar RSUExampleScenario.node[106].veinsmobility 	totalCO2Emission 	750.33305811007
scalar RSUExampleScenario.node[107].veinsmobility 	startTime 	321.1
scalar RSUExampleScenario.node[107].veinsmobility 	totalTime 	327.1
scalar RSUExampleScenario.node[107].veinsmobility 	stopTime 	648.3
scalar RSUExampleScenario.node[107].veinsmobility 	minSpeed 	0.24943641684507
scalar RSUExampleScenario.node[107].veinsmobility 	maxSpeed 	13.999981200343
scalar RSUExampleScenario.node[107].veinsmobility 	totalDistance 	3409.9514324167
scalar RSUExampleScenario.node[107].veinsmobility 	totalCO2Emission 	748.49942792609
scalar RSUExampleScenario.node[108].veinsmobility 	startTime 	324.1
scalar RSUExampleScenario.node[108].veinsmobility 	totalTime 	327.8
scalar RSUExampleScenario.node[108].veinsmobility 	stopTime 	652
scalar RSUExampleScenario.node[108].veinsmobility 	minSpeed 	0.25804284540657
scalar RSUExampleScenario.node[108].veinsmobility 	maxSpeed 	13.999943416002
scalar RSUExampleScenario.node[108].veinsmobility 	totalDistance 	3413.8599406589
scalar RSUExampleScenario.node[108].veinsmobility 	totalCO2Emission 	748.09505691313
scalar RSUExampleScenario.node[109].veinsmobility 	startTime 	327.1
scalar RSUExampleScenario.node[109].veinsmobility 	totalTime 	328.5
scalar RSUExampleScenario.node[109].veinsmobility 	stopTime 	655.7
scalar RSUExampleScenario.node[109].veinsmobility 	minSpeed 	0.25025513897697
scalar RSUExampleScenario.node[109].veinsmobility 	maxSpeed 	13.999870788611
scalar RSUExampleScenario.node[109].veinsmobility 	totalDistance 	3409.8339338883
scalar RSUExampleScenario.node[109].veinsmobility 	totalCO2Emission 	750.59946038237
scalar RSUExampleScenario.node[110].veinsmobility 	startTime 	330.1
scalar RSUExampleScenario.node[110].veinsmobility 	totalTime 	329.2
scalar RSUExampleScenario.node[110].veinsmobility 	stopTime 	659.4
scalar RSUExampleScenario.node[110].veinsmobility 	minSpeed 	0.24822005117824
scalar RSUExampleScenario.node[110].veinsmobility 	maxSpeed 	13.999958816625
scalar RSUExampleScenario.node[110].veinsmobility 	totalDistance 	3409.6914167536
scalar RSUExampleScenario.node[110].veinsmobility 	totalCO2Emission 	751.12245991514
scalar RSUExampleScenario.node[111].veinsmobility 	startTime 	333.1
scalar RSUExampleScenario.node[111].veinsmobility 	totalTime 	329.9
scalar RSUExampleScenario.node[111].veinsmobility 	stopTime 	663.1
scalar RSUExampleScenario.node[111].veinsmobility 	minSpeed 	0.25154977859696
scalar RSUExampleScenario.node[111].veinsmobility 	maxSpeed 	13.999999411802
scalar RSUExampleScenario.node[111].veinsmobility 	totalDistance 	3413.8922463705
scalar RSUExampleScenario.node[111].veinsmobility 	totalCO2Emission 	752.93925869789
scalar RSUExampleScenario.node[112].veinsmobility 	startTime 	336.1
scalar RSUExampleScenario.node[112].veinsmobility 	totalTime 	330.6
scalar RSUExampleScenario.node[112].veinsmobility 	stopTime 	666.8
scalar RSUExampleScenario.node[112].veinsmobility 	minSpeed 	0.25009497866244
scalar RSUExampleScenario.node[112].veinsmobility 	maxSpeed 	13.999934446721
scalar RSUExampleScenario.node[112].veinsmobility 	totalDistance 	3409.9926545596
scalar RSUExampleScenario.node[112].veinsmobility 	totalCO2Emission 	756.94223930298
scalar RSUExampleScenario.node[113].veinsmobility 	startTime 	339.1
scalar RSUExampleScenario.node[113].veinsmobility 	totalTime 	331.4
scalar RSUExampleScenario.node[113].veinsmobility 	stopTime 	670.6
scalar RSUExampleScenario.node[113].veinsmobility 	minSpeed 	0.25175307128159
scalar RSUExampleScenario.node[113].veinsmobility 	maxSpeed 	13.999862256187
scalar RSUExampleScenario.node[113].veinsmobility 	totalDistance 	3414.4514316416
scalar RSUExampleScenario.node[113].veinsmobility 	totalCO2Emission 	753.37940680729
scalar RSUExampleScenario.node[114].veinsmobility 	startTime 	342.1
scalar RSUExampleScenario.node[114].veinsmobility 	totalTime 	332
scalar RSUExampleScenario.node[114].veinsmobility 	stopTime 	674.2
scalar RSUExampleScenario.node[114].veinsmobility 	minSpeed 	0.25939153500693
scalar RSUExampleScenario.node[114].veinsmobility 	maxSpeed 	13.999807121058
scalar RSUExampleScenario.node[114].veinsmobility 	totalDistance 	3409.4545576045
scalar RSUExampleScenario.node[114].veinsmobility 	totalCO2Emission 	747.06769786897
scalar RSUExampleScenario.node[115].veinsmobility 	startTime 	345.1
scalar RSUExampleScenario.node[115].veinsmobility 	totalTime 	332.8
scalar RSUExampleScenario.node[115].veinsmobility 	stopTime 	678
scalar RSUExampleScenario.node[115].veinsmobility 	minSpeed 	0.25437438267167
scalar RSUExampleScenario.node[115].veinsmobility 	maxSpeed 	13.999965083702
scalar RSUExampleScenario.node[115].veinsmobility 	totalDistance 	3414.2431253818
scalar RSUExampleScenario.node[115].veinsmobility 	totalCO2Emission 	756.19420863353
scalar RSUExampleScenario.node[116].veinsmobility 	startTime 	348.1
scalar RSUExampleScenario.node[116].veinsmobility 	totalTime 	333.5
scalar RSUExampleScenario.node[116].veinsmobility 	stopTime 	681.7
scalar RSUExampleScenario.node[116].veinsmobility 	minSpeed 	0.25294084636797
scalar RSUExampleScenario.node[116].veinsmobility 	maxSpeed 	13.999987271586
scalar RSUExampleScenario.node[116].veinsmobility 	totalDistance 	3409.8670349899
scalar RSUExampleScenario.node[116].veinsmobility 	totalCO2Emission 	759.11903561873
scalar RSUExampleScenario.node[117].veinsmobility 	startTime 	351.1
scalar RSUExampleScenario.node[117].veinsmobility 	totalTime 	334.1
scalar RSUExampleScenario.node[117].veinsmobility 	stopTime 	685.3
scalar RSUExampleScenario.node[117].veinsmobility 	minSpeed 	0.25606565571134
scalar RSUExampleScenario.node[117].veinsmobility 	maxSpeed 	13.999912762556
scalar RSUExampleScenario.node[117].veinsmobility 	totalDistance 	3413.7024832716
scalar RSUExampleScenario.node[117].veinsmobility 	totalCO2Emission 	757.19951850853
scalar RSUExampleScenario.node[118].veinsmobility 	startTime 	354.1
scalar RSUExampleScenario.node[118].veinsmobility 	totalTime 	334.8
scalar RSUExampleScenario.node[118].veinsmobility 	stopTime 	689
scalar RSUExampleScenario.node[118].veinsmobility 	minSpeed 	0.25049684809521
scalar RSUExampleScenario.node[118].veinsmobility 	maxSpeed 	13.999993722935
scalar RSUExampleScenario.node[118].veinsmobility 	totalDistance 	3409.9107088522
scalar RSUExampleScenario.node[118].veinsmobility 	totalCO2Emission 	758.81487852652
scalar RSUExampleScenario.node[119].veinsmobility 	startTime 	357.1
scalar RSUExampleScenario.node[119].veinsmobility 	totalTime 	335.5
scalar RSUExampleScenario.node[119].veinsmobility 	stopTime 	692.7
scalar RSUExampleScenario.node[119].veinsmobility 	minSpeed 	0.24962448144681
scalar RSUExampleScenario.node[119].veinsmobility 	maxSpeed 	13.999997787683
scalar RSUExampleScenario.node[119].veinsmobility 	totalDistance 	3414.0680364647
scalar RSUExampleScenario.node[119].veinsmobility 	totalCO2Emission 	757.0717264825
scalar RSUExampleScenario.node[120].veinsmobility 	startTime 	360.1
scalar RSUExampleScenario.node[120].veinsmobility 	totalTime 	336.2
scalar RSUExampleScenario.node[120].veinsmobility 	stopTime 	696.4
scalar RSUExampleScenario.node[120].veinsmobility 	minSpeed 	0.25032194783865
scalar RSUExampleScenario.node[120].veinsmobility 	maxSpeed 	13.999936858111
scalar RSUExampleScenario.node[120].veinsmobility 	totalDistance 	3409.8698347959
scalar RSUExampleScenario.node[120].veinsmobility 	totalCO2Emission 	762.86157882
scalar RSUExampleScenario.node[121].veinsmobility 	startTime 	363.1
scalar RSUExampleScenario.node[121].veinsmobility 	totalTime 	336.9
scalar RSUExampleScenario.node[121].veinsmobility 	stopTime 	700.1
scalar RSUExampleScenario.node[121].veinsmobility 	minSpeed 	0.25214581661532
scalar RSUExampleScenario.node[121].veinsmobility 	maxSpeed 	13.999952986436
scalar RSUExampleScenario.node[121].veinsmobility 	totalDistance 	3410.1141877811
scalar RSUExampleScenario.node[121].veinsmobility 	totalCO2Emission 	758.34793175903
scalar RSUExampleScenario.node[122].veinsmobility 	startTime 	366.1
scalar RSUExampleScenario.node[122].veinsmobility 	totalTime 	337.5
scalar RSUExampleScenario.node[122].veinsmobility 	stopTime 	703.7
scalar RSUExampleScenario.node[122].veinsmobility 	minSpeed 	0.24896890924359
scalar RSUExampleScenario.node[122].veinsmobility 	maxSpeed 	13.999936472678
scalar RSUExampleScenario.node[122].veinsmobility 	totalDistance 	3413.8752894622
scalar RSUExampleScenario.node[122].veinsmobility 	totalCO2Emission 	759.01903354413
scalar RSUExampleScenario.node[123].veinsmobility 	startTime 	369.1
scalar RSUExampleScenario.node[123].veinsmobility 	totalTime 	338.2
scalar RSUExampleScenario.node[123].veinsmobility 	stopTime 	707.4
scalar RSUExampleScenario.node[123].veinsmobility 	minSpeed 	0.25835396803124
scalar RSUExampleScenario.node[123].veinsmobility 	maxSpeed 	13.999991646067
scalar RSUExampleScenario.node[123].veinsmobility 	totalDistance 	3409.6066906354
scalar RSUExampleScenario.node[123].veinsmobility 	totalCO2Emission 	761.10882843939
scalar RSUExampleScenario.node[124].veinsmobility 	startTime 	372.1
scalar RSUExampleScenario.node[124].veinsmobility 	totalTime 	338.9
scalar RSUExampleScenario.node[124].veinsmobility 	stopTime 	711.1
scalar RSUExampleScenario.node[124].veinsmobility 	minSpeed 	0.2518357817675
scalar RSUExampleScenario.node[124].veinsmobility 	maxSpeed 	13.999954415206
scalar RSUExampleScenario.node[124].veinsmobility 	totalDistance 	3414.0781539161
scalar RSUExampleScenario.node[124].veinsmobility 	totalCO2Emission 	764.27599150945
scalar RSUExampleScenario.node[125].veinsmobility 	startTime 	375.1
scalar RSUExampleScenario.node[125].veinsmobility 	totalTime 	339.6
scalar RSUExampleScenario.node[125].veinsmobility 	stopTime 	714.8
scalar RSUExampleScenario.node[125].veinsmobility 	minSpeed 	0.25002603249368
scalar RSUExampleScenario.node[125].veinsmobility 	maxSpeed 	13.999971863457
scalar RSUExampleScenario.node[125].veinsmobility 	totalDistance 	3409.9632162313
scalar RSUExampleScenario.node[125].veinsmobility 	totalCO2Emission 	761.3138345843
scalar RSUExampleScenario.node[126].veinsmobility 	startTime 	378.1
scalar RSUExampleScenario.node[126].veinsmobility 	totalTime 	340.2
scalar RSUExampleScenario.node[126].veinsmobility 	stopTime 	718.4
scalar RSUExampleScenario.node[126].veinsmobility 	minSpeed 	0.25884731335822
scalar RSUExampleScenario.node[126].veinsmobility 	maxSpeed 	13.999979113699
scalar RSUExampleScenario.node[126].veinsmobility 	totalDistance 	3413.5626481663
scalar RSUExampleScenario.node[126].veinsmobility 	totalCO2Emission 	765.01899505072
scalar RSUExampleScenario.node[127].veinsmobility 	startTime 	381.1
scalar RSUExampleScenario.node[127].veinsmobility 	totalTime 	340.9
scalar RSUExampleScenario.node[127].veinsmobility 	stopTime 	722.1
scalar RSUExampleScenario.node[127].veinsmobility 	minSpeed 	0.25486988497083
scalar RSUExampleScenario.node[127].veinsmobility 	maxSpeed 	13.99998500064
scalar RSUExampleScenario.node[127].veinsmobility 	totalDistance 	3409.7775933509
scalar RSUExampleScenario.node[127].veinsmobility 	totalCO2Emission 	764.38497658178
scalar RSUExampleScenario.node[128].veinsmobility 	startTime 	384.1
scalar RSUExampleScenario.node[128].veinsmobility 	totalTime 	341.5
scalar RSUExampleScenario.node[128].veinsmobility 	stopTime 	725.7
scalar RSUExampleScenario.node[128].veinsmobility 	minSpeed 	0.24950293400208
scalar RSUExampleScenario.node[128].veinsmobility 	maxSpeed 	13.999980577549
scalar RSUExampleScenario.node[128].veinsmobility 	totalDistance 	3414.0107082485
scalar RSUExampleScenario.node[128].veinsmobility 	totalCO2Emission 	766.33349124858
scalar RSUExampleScenario.node[129].veinsmobility 	startTime 	387.1
scalar RSUExampleScenario.node[129].veinsmobility 	totalTime 	342.1
scalar RSUExampleScenario.node[129].veinsmobility 	stopTime 	729.3
scalar RSUExampleScenario.node[129].veinsmobility 	minSpeed 	0.25281661255192
scalar RSUExampleScenario.node[129].veinsmobility 	maxSpeed 	13.999978822309
scalar RSUExampleScenario.node[129].veinsmobility 	totalDistance 	3409.7087136631
scalar RSUExampleScenario.node[129].veinsmobility 	totalCO2Emission 	765.2428381516
scalar RSUExampleScenario.node[130].veinsmobility 	startTime 	390.1
scalar RSUExampleScenario.node[130].veinsmobility 	totalTime 	342.8
scalar RSUExampleScenario.node[130].veinsmobility 	stopTime 	733
scalar RSUExampleScenario.node[130].veinsmobility 	minSpeed 	0.25675646497798
scalar RSUExampleScenario.node[130].veinsmobility 	maxSpeed 	13.999884787221
scalar RSUExampleScenario.node[130].veinsmobility 	totalDistance 	3414.4306454664
scalar RSUExampleScenario.node[130].veinsmobility 	totalCO2Emission 	765.22711786752
scalar RSUExampleScenario.node[131].veinsmobility 	startTime 	393.1
scalar RSUExampleScenario.node[131].veinsmobility 	totalTime 	343.5
scalar RSUExampleScenario.node[131].veinsmobility 	stopTime 	736.7
scalar RSUExampleScenario.node[131].veinsmobility 	minSpeed 	0.25275886260718
scalar RSUExampleScenario.node[131].veinsmobility 	maxSpeed 	13.999994981932
scalar RSUExampleScenario.node[131].veinsmobility 	totalDistance 	3410.100303783
scalar RSUExampleScenario.node[131].veinsmobility 	totalCO2Emission 	762.38432145836
scalar RSUExampleScenario.node[132].veinsmobility 	startTime 	396.1
scalar RSUExampleScenario.node[132].veinsmobility 	totalTime 	344.2
scalar RSUExampleScenario.node[132].veinsmobility 	stopTime 	740.4
scalar RSUExampleScenario.node[132].veinsmobility 	minSpeed 	0.24974302536924
scalar RSUExampleScenario.node[132].veinsmobility 	maxSpeed 	13.999945514512
scalar RSUExampleScenario.node[132].veinsmobility 	totalDistance 	3410.0807128611
scalar RSUExampleScenario.node[132].veinsmobility 	totalCO2Emission 	768.98120218209
scalar RSUExampleScenario.node[133].veinsmobility 	startTime 	399.1
scalar RSUExampleScenario.node[133].veinsmobility 	totalTime 	344.9
scalar RSUExampleScenario.node[133].veinsmobility 	stopTime 	744.1
scalar RSUExampleScenario.node[133].veinsmobility 	minSpeed 	0.25025270070322
scalar RSUExampleScenario.node[133].veinsmobility 	maxSpeed 	13.99985522212
scalar RSUExampleScenario.node[133].veinsmobility 	totalDistance 	3414.2217500698
scalar RSUExampleScenario.node[133].veinsmobility 	totalCO2Emission 	767.70470843547
scalar RSUExampleScenario.node[134].veinsmobility 	startTime 	402.1
scalar RSUExampleScenario.node[134].veinsmobility 	totalTime 	345.5
scalar RSUExampleScenario.node[134].veinsmobility 	stopTime 	747.7
scalar RSUExampleScenario.node[134].veinsmobility 	minSpeed 	0.25082483326783
scalar RSUExampleScenario.node[134].veinsmobility 	maxSpeed 	13.999983391806
scalar RSUExampleScenario.node[134].veinsmobility 	totalDistance 	3409.7349765459
scalar RSUExampleScenario.node[134].veinsmobility 	totalCO2Emission 	763.14307116272
scalar RSUExampleScenario.node[135].veinsmobility 	startTime 	405.1
scalar RSUExampleScenario.node[135].veinsmobility 	totalTime 	346.2
scalar RSUExampleScenario.node[135].veinsmobility 	stopTime 	751.4
scalar RSUExampleScenario.node[135].veinsmobility 	minSpeed 	0.25229788602237
scalar RSUExampleScenario.node[135].veinsmobility 	maxSpeed 	13.999943288392
scalar RSUExampleScenario.node[135].veinsmobility 	totalDistance 	3413.9854979204
scalar RSUExampleScenario.node[135].veinsmobility 	totalCO2Emission 	764.87551287084
scalar RSUExampleScenario.node[136].veinsmobility 	startTime 	408.1
scalar RSUExampleScenario.node[136].veinsmobility 	totalTime 	346.9
scalar RSUExampleScenario.node[136].veinsmobility 	stopTime 	755.1
scalar RSUExampleScenario.node[136].veinsmobility 	minSpeed 	0.25705580193992
scalar RSUExampleScenario.node[136].veinsmobility 	maxSpeed 	13.999979193395
scalar RSUExampleScenario.node[136].veinsmobility 	totalDistance 	3410.1325017928
scalar RSUExampleScenario.node[136].veinsmobility 	totalCO2Emission 	769.40661768037
scalar RSUExampleScenario.node[137].veinsmobility 	startTime 	411.1
scalar RSUExampleScenario.node[137].veinsmobility 	totalTime 	347.6
scalar RSUExampleScenario.node[137].veinsmobility 	stopTime 	758.8
scalar RSUExampleScenario.node[137].veinsmobility 	minSpeed 	0.24865614590049
scalar RSUExampleScenario.node[137].veinsmobility 	maxSpeed 	13.999931582583
scalar RSUExampleScenario.node[137].veinsmobility 	totalDistance 	3413.7708156399
scalar RSUExampleScenario.node[137].veinsmobility 	totalCO2Emission 	769.32371510862
scalar RSUExampleScenario.node[138].veinsmobility 	startTime 	414.1
scalar RSUExampleScenario.node[138].veinsmobility 	totalTime 	348.2
scalar RSUExampleScenario.node[138].veinsmobility 	stopTime 	762.4
scalar RSUExampleScenario.node[138].veinsmobility 	minSpeed 	0.25299632789078
scalar RSUExampleScenario.node[138].veinsmobility 	maxSpeed 	13.999918364342
scalar RSUExampleScenario.node[138].veinsmobility 	totalDistance 	3409.5873644783
scalar RSUExampleScenario.node[138].veinsmobility 	totalCO2Emission 	765.02215776693
scalar RSUExampleScenario.node[139].veinsmobility 	startTime 	417.1
scalar RSUExampleScenario.node[139].veinsmobility 	totalTime 	348.8
scalar RSUExampleScenario.node[139].veinsmobility 	stopTime 	766
scalar RSUExampleScenario.node[139].veinsmobility 	minSpeed 	0.25279160167207
scalar RSUExampleScenario.node[139].veinsmobility 	maxSpeed 	13.999834160658
scalar RSUExampleScenario.node[139].veinsmobility 	totalDistance 	3413.6836133186
scalar RSUExampleScenario.node[139].veinsmobility 	totalCO2Emission 	772.84128863924
scalar RSUExampleScenario.node[140].veinsmobility 	startTime 	420.1
scalar RSUExampleScenario.node[140].veinsmobility 	totalTime 	349.4
scalar RSUExampleScenario.node[140].veinsmobility 	stopTime 	769.6
scalar RSUExampleScenario.node[140].veinsmobility 	minSpeed 	0.24812209190917
scalar RSUExampleScenario.node[140].veinsmobility 	maxSpeed 	13.999913186489
scalar RSUExampleScenario.node[140].veinsmobility 	totalDistance 	3409.6390724179
scalar RSUExampleScenario.node[140].veinsmobility 	totalCO2Emission 	769.85428745064
scalar RSUExampleScenario.node[141].veinsmobility 	startTime 	423.1
scalar RSUExampleScenario.node[141].veinsmobility 	totalTime 	350.1
scalar RSUExampleScenario.node[141].veinsmobility 	stopTime 	773.3
scalar RSUExampleScenario.node[141].veinsmobility 	minSpeed 	0.24952752184751
scalar RSUExampleScenario.node[141].veinsmobility 	maxSpeed 	13.999958041098
scalar RSUExampleScenario.node[141].veinsmobility 	totalDistance 	3413.7677688011
scalar RSUExampleScenario.node[141].veinsmobility 	totalCO2Emission 	771.80940490865
scalar RSUExampleScenario.node[142].veinsmobility 	startTime 	426.1
scalar RSUExampleScenario.node[142].veinsmobility 	totalTime 	350.8
scalar RSUExampleScenario.node[142].veinsmobility 	stopTime 	777
scalar RSUExampleScenario.node[142].veinsmobility 	minSpeed 	0.25869463905459
scalar RSUExampleScenario.node[142].veinsmobility 	maxSpeed 	13.999932696717
scalar RSUExampleScenario.node[142].veinsmobility 	totalDistance 	3409.733825641
scalar RSUExampleScenario.node[142].veinsmobility 	totalCO2Emission 	766.20748811322
scalar RSUExampleScenario.node[143].veinsmobility 	startTime 	429.1
scalar RSUExampleScenario.node[143].veinsmobility 	totalTime 	351.5
scalar RSUExampleScenario.node[143].veinsmobility 	stopTime 	780.7
scalar RSUExampleScenario.node[143].veinsmobility 	minSpeed 	0.25320440514456
scalar RSUExampleScenario.node[143].veinsmobility 	maxSpeed 	13.999897827455
scalar RSUExampleScenario.node[143].veinsmobility 	totalDistance 	3413.9648894228
scalar RSUExampleScenario.node[143].veinsmobility 	totalCO2Emission 	772.02810185415
scalar RSUExampleScenario.node[144].veinsmobility 	startTime 	432.1
scalar RSUExampleScenario.node[144].veinsmobility 	totalTime 	352.2
scalar RSUExampleScenario.node[144].veinsmobility 	stopTime 	784.4
scalar RSUExampleScenario.node[144].veinsmobility 	minSpeed 	0.25179149755533
scalar RSUExampleScenario.node[144].veinsmobility 	maxSpeed 	13.999966179493
scalar RSUExampleScenario.node[144].veinsmobility 	totalDistance 	3409.7424387374
scalar RSUExampleScenario.node[144].veinsmobility 	totalCO2Emission 	774.07161205565
scalar RSUExampleScenario.node[145].veinsmobility 	startTime 	435.1
scalar RSUExampleScenario.node[145].veinsmobility 	totalTime 	352.9
scalar RSUExampleScenario.node[145].veinsmobility 	stopTime 	788.1
scalar RSUExampleScenario.node[145].veinsmobility 	minSpeed 	0.24917186055076
scalar RSUExampleScenario.node[145].veinsmobility 	maxSpeed 	13.999989250659
scalar RSUExampleScenario.node[145].veinsmobility 	totalDistance 	3413.7359237519
scalar RSUExampleScenario.node[145].veinsmobility 	totalCO2Emission 	774.88887258458
scalar RSUExampleScenario.node[146].veinsmobility 	startTime 	438.1
scalar RSUExampleScenario.node[146].veinsmobility 	totalTime 	353.5
scalar RSUExampleScenario.node[146].veinsmobility 	stopTime 	791.7
scalar RSUExampleScenario.node[146].veinsmobility 	minSpeed 	0.25681362543255
scalar RSUExampleScenario.node[146].veinsmobility 	maxSpeed 	13.999910838238
scalar RSUExampleScenario.node[146].veinsmobility 	totalDistance 	3409.7158898562
scalar RSUExampleScenario.node[146].veinsmobility 	totalCO2Emission 	772.4954148921
scalar RSUExampleScenario.node[147].veinsmobility 	startTime 	441.1
scalar RSUExampleScenario.node[147].veinsmobility 	totalTime 	354.2
scalar RSUExampleScenario.node[147].veinsmobility 	stopTime 	795.4
scalar RSUExampleScenario.node[147].veinsmobility 	minSpeed 	0.25247076942632
scalar RSUExampleScenario.node[147].veinsmobility 	maxSpeed 	13.999931759923
scalar RSUExampleScenario.node[147].veinsmobility 	totalDistance 	3414.0067329373
scalar RSUExampleScenario.node[147].veinsmobility 	totalCO2Emission 	777.97337234366
scalar RSUExampleScenario.node[148].veinsmobility 	startTime 	444.1
scalar RSUExampleScenario.node[148].veinsmobility 	totalTime 	354.8
scalar RSUExampleScenario.node[148].veinsmobility 	stopTime 	799
scalar RSUExampleScenario.node[148].veinsmobility 	minSpeed 	0.25996171137295
scalar RSUExampleScenario.node[148].veinsmobility 	maxSpeed 	13.999949386059
scalar RSUExampleScenario.node[148].veinsmobility 	totalDistance 	3409.7580354979
scalar RSUExampleScenario.node[148].veinsmobility 	totalCO2Emission 	776.10370591461
scalar RSUExampleScenario.node[149].veinsmobility 	startTime 	447.1
scalar RSUExampleScenario.node[149].veinsmobility 	totalTime 	355.5
scalar RSUExampleScenario.node[149].veinsmobility 	stopTime 	802.7
scalar RSUExampleScenario.node[149].veinsmobility 	minSpeed 	0.24739095302415
scalar RSUExampleScenario.node[149].veinsmobility 	maxSpeed 	13.999975208826
scalar RSUExampleScenario.node[149].veinsmobility 	totalDistance 	3413.8629576261
scalar RSUExampleScenario.node[149].veinsmobility 	totalCO2Emission 	776.72673092222
scalar RSUExampleScenario.node[150].veinsmobility 	startTime 	450.1
scalar RSUExampleScenario.node[150].veinsmobility 	totalTime 	356.3
scalar RSUExampleScenario.node[150].veinsmobility 	stopTime 	806.5
scalar RSUExampleScenario.node[150].veinsmobility 	minSpeed 	0.2534171472243
scalar RSUExampleScenario.node[150].veinsmobility 	maxSpeed 	13.999841473463
scalar RSUExampleScenario.node[150].veinsmobility 	totalDistance 	3410.294961059
scalar RSUExampleScenario.node[150].veinsmobility 	totalCO2Emission 	775.86064771586
scalar RSUExampleScenario.node[151].veinsmobility 	startTime 	453.1
scalar RSUExampleScenario.node[151].veinsmobility 	totalTime 	357
scalar RSUExampleScenario.node[151].veinsmobility 	stopTime 	810.2
scalar RSUExampleScenario.node[151].veinsmobility 	minSpeed 	0.25092989754351
scalar RSUExampleScenario.node[151].veinsmobility 	maxSpeed 	13.999965603857
scalar RSUExampleScenario.node[151].veinsmobility 	totalDistance 	3414.1566394899
scalar RSUExampleScenario.node[151].veinsmobility 	totalCO2Emission 	780.32971682129
scalar RSUExampleScenario.node[152].veinsmobility 	startTime 	456.1
scalar RSUExampleScenario.node[152].veinsmobility 	totalTime 	357.7
scalar RSUExampleScenario.node[152].veinsmobility 	stopTime 	813.9
scalar RSUExampleScenario.node[152].veinsmobility 	minSpeed 	0.25149150888738
scalar RSUExampleScenario.node[152].veinsmobility 	maxSpeed 	13.999922080887
scalar RSUExampleScenario.node[152].veinsmobility 	totalDistance 	3410.128437626
[...]
scalar RSUExampleScenario.node[628].veinsmobility 	totalCO2Emission 	325.16383506597
scalar RSUExampleScenario.node[629].veinsmobility 	startTime 	1887.1
scalar RSUExampleScenario.node[629].veinsmobility 	totalTime 	112.8
scalar RSUExampleScenario.node[629].veinsmobility 	stopTime 	2000
scalar RSUExampleScenario.node[629].veinsmobility 	minSpeed 	0.25913056519628
scalar RSUExampleScenario.node[629].veinsmobility 	maxSpeed 	13.999195362127
scalar RSUExampleScenario.node[629].veinsmobility 	totalDistance 	1361.139534746
scalar RSUExampleScenario.node[629].veinsmobility 	totalCO2Emission 	316.73251034851
scalar RSUExampleScenario.node[630].veinsmobility 	startTime 	1890.1
scalar RSUExampleScenario.node[630].veinsmobility 	totalTime 	109.8
scalar RSUExampleScenario.node[630].veinsmobility 	stopTime 	2000
scalar RSUExampleScenario.node[630].veinsmobility 	minSpeed 	0.2482320267302
scalar RSUExampleScenario.node[630].veinsmobility 	maxSpeed 	13.99991402694
scalar RSUExampleScenario.node[630].veinsmobility 	totalDistance 	1320.0761641558
scalar RSUExampleScenario.node[630].veinsmobility 	totalCO2Emission 	312.20715134132
scalar RSUExampleScenario.node[631].veinsmobility 	startTime 	1893.1
scalar RSUExampleScenario.node[631].veinsmobility 	totalTime 	106.8
scalar RSUExampleScenario.node[631].veinsmobility 	stopTime 	2000
scalar RSUExampleScenario.node[631].veinsmobility 	minSpeed 	0.24833967203554
scalar RSUExampleScenario.node[631].veinsmobility 	maxSpeed 	13.99998742901
scalar RSUExampleScenario.node[631].veinsmobility 	totalDistance 	1280.1615101305
scalar RSUExampleScenario.node[631].veinsmobility 	totalCO2Emission 	304.97108568036
scalar RSUExampleScenario.node[632].veinsmobility 	startTime 	1896.1
scalar RSUExampleScenario.node[632].veinsmobility 	totalTime 	103.8
scalar RSUExampleScenario.node[632].veinsmobility 	stopTime 	2000
scalar RSUExampleScenario.node[632].veinsmobility 	minSpeed 	0.25403727296717
scalar RSUExampleScenario.node[632].veinsmobility 	maxSpeed 	13.999736600651
scalar RSUExampleScenario.node[632].veinsmobility 	totalDistance 	1235.2694883803
scalar RSUExampleScenario.node[632].veinsmobility 	totalCO2Emission 	296.61212454122
scalar RSUExampleScenario.node[633].veinsmobility 	startTime 	1899.1
scalar RSUExampleScenario.node[633].veinsmobility 	totalTime 	100.8
scalar RSUExampleScenario.node[633].veinsmobility 	stopTime 	2000
scalar RSUExampleScenario.node[633].veinsmobility 	minSpeed 	0.24896900980896
scalar RSUExampleScenario.node[633].veinsmobility 	maxSpeed 	13.999273939538
scalar RSUExampleScenario.node[633].veinsmobility 	totalDistance 	1193.3178972246
scalar RSUExampleScenario.node[633].veinsmobility 	totalCO2Emission 	286.28514614689
scalar RSUExampleScenario.node[634].veinsmobility 	startTime 	1902.1
scalar RSUExampleScenario.node[634].veinsmobility 	totalTime 	97.8
scalar RSUExampleScenario.node[634].veinsmobility 	stopTime 	2000
scalar RSUExampleScenario.node[634].veinsmobility 	minSpeed 	0.25985695250728
scalar RSUExampleScenario.node[634].veinsmobility 	maxSpeed 	13.999782419447
scalar RSUExampleScenario.node[634].veinsmobility 	totalDistance 	1150.0684749252
scalar RSUExampleScenario.node[634].veinsmobility 	totalCO2Emission 	279.10384571195
scalar RSUExampleScenario.node[635].veinsmobility 	startTime 	1905.1
scalar RSUExampleScenario.node[635].veinsmobility 	totalTime 	94.8
scalar RSUExampleScenario.node[635].veinsmobility 	stopTime 	2000
scalar RSUExampleScenario.node[635].veinsmobility 	minSpeed 	0.25498937081778
scalar RSUExampleScenario.node[635].veinsmobility 	maxSpeed 	13.999730944745
scalar RSUExampleScenario.node[635].veinsmobility 	totalDistance 	1111.919626628
scalar RSUExampleScenario.node[635].veinsmobility 	totalCO2Emission 	274.86121366412
scalar RSUExampleScenario.node[636].veinsmobility 	startTime 	1908.1
scalar RSUExampleScenario.node[636].veinsmobility 	totalTime 	91.8
scalar RSUExampleScenario.node[636].veinsmobility 	stopTime 	2000
scalar RSUExampleScenario.node[636].veinsmobility 	minSpeed 	0.24821930981241
scalar RSUExampleScenario.node[636].veinsmobility 	maxSpeed 	13.999313781678
scalar RSUExampleScenario.node[636].veinsmobility 	totalDistance 	1069.7320730882
scalar RSUExampleScenario.node[636].veinsmobility 	totalCO2Emission 	265.81003439687
scalar RSUExampleScenario.node[637].veinsmobility 	startTime 	1911.1
scalar RSUExampleScenario.node[637].veinsmobility 	totalTime 	88.8
scalar RSUExampleScenario.node[637].veinsmobility 	stopTime 	2000
scalar RSUExampleScenario.node[637].veinsmobility 	minSpeed 	0.24790168771334
scalar RSUExampleScenario.node[637].veinsmobility 	maxSpeed 	13.999647150647
scalar RSUExampleScenario.node[637].veinsmobility 	totalDistance 	1027.2157508955
scalar RSUExampleScenario.node[637].veinsmobility 	totalCO2Emission 	260.47974879826
scalar RSUExampleScenario.node[638].veinsmobility 	startTime 	1914.1
scalar RSUExampleScenario.node[638].veinsmobility 	totalTime 	85.8
scalar RSUExampleScenario.node[638].veinsmobility 	stopTime 	2000
scalar RSUExampleScenario.node[638].veinsmobility 	minSpeed 	0.25536536920909
scalar RSUExampleScenario.node[638].veinsmobility 	maxSpeed 	13.999201825703
scalar RSUExampleScenario.node[638].veinsmobility 	totalDistance 	986.18977510024
scalar RSUExampleScenario.node[638].veinsmobility 	totalCO2Emission 	250.47466212902
scalar RSUExampleScenario.node[639].veinsmobility 	startTime 	1917.1
scalar RSUExampleScenario.node[639].veinsmobility 	totalTime 	82.8
scalar RSUExampleScenario.node[639].veinsmobility 	stopTime 	2000
scalar RSUExampleScenario.node[639].veinsmobility 	minSpeed 	0.2550753134673
scalar RSUExampleScenario.node[639].veinsmobility 	maxSpeed 	13.99967169553
scalar RSUExampleScenario.node[639].veinsmobility 	totalDistance 	953.27363927177
scalar RSUExampleScenario.node[639].veinsmobility 	totalCO2Emission 	234.11085129849
scalar RSUExampleScenario.node[640].veinsmobility 	startTime 	1920.1
scalar RSUExampleScenario.node[640].veinsmobility 	totalTime 	79.8
scalar RSUExampleScenario.node[640].veinsmobility 	stopTime 	2000
scalar RSUExampleScenario.node[640].veinsmobility 	minSpeed 	0.25550087353587
scalar RSUExampleScenario.node[640].veinsmobility 	maxSpeed 	13.999797577017
scalar RSUExampleScenario.node[640].veinsmobility 	totalDistance 	937.13878758442
scalar RSUExampleScenario.node[640].veinsmobility 	totalCO2Emission 	223.96824528262
scalar RSUExampleScenario.node[641].veinsmobility 	startTime 	1923.1
scalar RSUExampleScenario.node[641].veinsmobility 	totalTime 	76.8
scalar RSUExampleScenario.node[641].veinsmobility 	stopTime 	2000
scalar RSUExampleScenario.node[641].veinsmobility 	minSpeed 	0.25585007387726
scalar RSUExampleScenario.node[641].veinsmobility 	maxSpeed 	13.99957110252
scalar RSUExampleScenario.node[641].veinsmobility 	totalDistance 	914.41749835915
scalar RSUExampleScenario.node[641].veinsmobility 	totalCO2Emission 	218.64261639809
scalar RSUExampleScenario.node[642].veinsmobility 	startTime 	1926.1
scalar RSUExampleScenario.node[642].veinsmobility 	totalTime 	73.8
scalar RSUExampleScenario.node[642].veinsmobility 	stopTime 	2000
scalar RSUExampleScenario.node[642].veinsmobility 	minSpeed 	0.254294672088
scalar RSUExampleScenario.node[642].veinsmobility 	maxSpeed 	13.999975498309
scalar RSUExampleScenario.node[642].veinsmobility 	totalDistance 	874.06560313067
scalar RSUExampleScenario.node[642].veinsmobility 	totalCO2Emission 	215.53198642236
scalar RSUExampleScenario.node[643].veinsmobility 	startTime 	1929.1
scalar RSUExampleScenario.node[643].veinsmobility 	totalTime 	70.8
scalar RSUExampleScenario.node[643].veinsmobility 	stopTime 	2000
scalar RSUExampleScenario.node[643].veinsmobility 	minSpeed 	0.25750183213083
scalar RSUExampleScenario.node[643].veinsmobility 	maxSpeed 	13.999882839597
scalar RSUExampleScenario.node[643].veinsmobility 	totalDistance 	832.21596090861
scalar RSUExampleScenario.node[643].veinsmobility 	totalCO2Emission 	207.98019483427
scalar RSUExampleScenario.node[644].veinsmobility 	startTime 	1932.1
scalar RSUExampleScenario.node[644].veinsmobility 	totalTime 	67.8
scalar RSUExampleScenario.node[644].veinsmobility 	stopTime 	2000
scalar RSUExampleScenario.node[644].veinsmobility 	minSpeed 	0.2500042001456
scalar RSUExampleScenario.node[644].veinsmobility 	maxSpeed 	13.999903947883
scalar RSUExampleScenario.node[644].veinsmobility 	totalDistance 	789.97927635157
scalar RSUExampleScenario.node[644].veinsmobility 	totalCO2Emission 	199.51340924183
scalar RSUExampleScenario.node[645].veinsmobility 	startTime 	1935.1
scalar RSUExampleScenario.node[645].veinsmobility 	totalTime 	64.8
scalar RSUExampleScenario.node[645].veinsmobility 	stopTime 	2000
scalar RSUExampleScenario.node[645].veinsmobility 	minSpeed 	0.25744116530591
scalar RSUExampleScenario.node[645].veinsmobility 	maxSpeed 	13.999649138588
scalar RSUExampleScenario.node[645].veinsmobility 	totalDistance 	747.25353016545
scalar RSUExampleScenario.node[645].veinsmobility 	totalCO2Emission 	192.36446046373
scalar RSUExampleScenario.node[646].veinsmobility 	startTime 	1938.1
scalar RSUExampleScenario.node[646].veinsmobility 	totalTime 	61.8
scalar RSUExampleScenario.node[646].veinsmobility 	stopTime 	2000
scalar RSUExampleScenario.node[646].veinsmobility 	minSpeed 	0.25839328864822
scalar RSUExampleScenario.node[646].veinsmobility 	maxSpeed 	13.99983414286
scalar RSUExampleScenario.node[646].veinsmobility 	totalDistance 	705.40747740591
scalar RSUExampleScenario.node[646].veinsmobility 	totalCO2Emission 	186.84118476466
scalar RSUExampleScenario.node[647].veinsmobility 	startTime 	1941.1
scalar RSUExampleScenario.node[647].veinsmobility 	totalTime 	58.8
scalar RSUExampleScenario.node[647].veinsmobility 	stopTime 	2000
scalar RSUExampleScenario.node[647].veinsmobility 	minSpeed 	0.24764746691845
scalar RSUExampleScenario.node[647].veinsmobility 	maxSpeed 	13.999839960609
scalar RSUExampleScenario.node[647].veinsmobility 	totalDistance 	664.43917210648
scalar RSUExampleScenario.node[647].veinsmobility 	totalCO2Emission 	179.45693499584
scalar RSUExampleScenario.node[648].veinsmobility 	startTime 	1944.1
scalar RSUExampleScenario.node[648].veinsmobility 	totalTime 	55.8
scalar RSUExampleScenario.node[648].veinsmobility 	stopTime 	2000
scalar RSUExampleScenario.node[648].veinsmobility 	minSpeed 	0.25676459138072
scalar RSUExampleScenario.node[648].veinsmobility 	maxSpeed 	13.99911000605
scalar RSUExampleScenario.node[648].veinsmobility 	totalDistance 	622.57698140282
scalar RSUExampleScenario.node[648].veinsmobility 	totalCO2Emission 	172.28004235711
scalar RSUExampleScenario.node[649].veinsmobility 	startTime 	1947.1
scalar RSUExampleScenario.node[649].veinsmobility 	totalTime 	52.8
scalar RSUExampleScenario.node[649].veinsmobility 	stopTime 	2000
scalar RSUExampleScenario.node[649].veinsmobility 	minSpeed 	0.24737243663659
scalar RSUExampleScenario.node[649].veinsmobility 	maxSpeed 	13.999121876215
scalar RSUExampleScenario.node[649].veinsmobility 	totalDistance 	581.67451093228
scalar RSUExampleScenario.node[649].veinsmobility 	totalCO2Emission 	163.46055761886
scalar RSUExampleScenario.node[650].veinsmobility 	startTime 	1950.1
scalar RSUExampleScenario.node[650].veinsmobility 	totalTime 	49.8
scalar RSUExampleScenario.node[650].veinsmobility 	stopTime 	2000
scalar RSUExampleScenario.node[650].veinsmobility 	minSpeed 	0.25431973408745
scalar RSUExampleScenario.node[650].veinsmobility 	maxSpeed 	13.99995983154
scalar RSUExampleScenario.node[650].veinsmobility 	totalDistance 	539.13525753895
scalar RSUExampleScenario.node[650].veinsmobility 	totalCO2Emission 	157.5245014045
scalar RSUExampleScenario.node[651].veinsmobility 	startTime 	1953.1
scalar RSUExampleScenario.node[651].veinsmobility 	totalTime 	46.8
scalar RSUExampleScenario.node[651].veinsmobility 	stopTime 	2000
scalar RSUExampleScenario.node[651].veinsmobility 	minSpeed 	0.25228792556445
scalar RSUExampleScenario.node[651].veinsmobility 	maxSpeed 	13.999379226447
scalar RSUExampleScenario.node[651].veinsmobility 	totalDistance 	497.6025079037
scalar RSUExampleScenario.node[651].veinsmobility 	totalCO2Emission 	150.77687591652
scalar RSUExampleScenario.node[652].veinsmobility 	startTime 	1956.1
scalar RSUExampleScenario.node[652].veinsmobility 	totalTime 	43.8
scalar RSUExampleScenario.node[652].veinsmobility 	stopTime 	2000
scalar RSUExampleScenario.node[652].veinsmobility 	minSpeed 	0.25060549814627
scalar RSUExampleScenario.node[652].veinsmobility 	maxSpeed 	13.999427585665
scalar RSUExampleScenario.node[652].veinsmobility 	totalDistance 	454.96680581575
scalar RSUExampleScenario.node[652].veinsmobility 	totalCO2Emission 	144.74393627471
scalar RSUExampleScenario.node[653].veinsmobility 	startTime 	1959.1
scalar RSUExampleScenario.node[653].veinsmobility 	totalTime 	40.8
scalar RSUExampleScenario.node[653].veinsmobility 	stopTime 	2000
scalar RSUExampleScenario.node[653].veinsmobility 	minSpeed 	0.25756736711296
scalar RSUExampleScenario.node[653].veinsmobility 	maxSpeed 	13.999934242382
scalar RSUExampleScenario.node[653].veinsmobility 	totalDistance 	415.07524847878
scalar RSUExampleScenario.node[653].veinsmobility 	totalCO2Emission 	137.35894915084
scalar RSUExampleScenario.node[654].veinsmobility 	startTime 	1962.1
scalar RSUExampleScenario.node[654].veinsmobility 	totalTime 	37.8
scalar RSUExampleScenario.node[654].veinsmobility 	stopTime 	2000
scalar RSUExampleScenario.node[654].veinsmobility 	minSpeed 	0.25073845402081
scalar RSUExampleScenario.node[654].veinsmobility 	maxSpeed 	13.999206065461
scalar RSUExampleScenario.node[654].veinsmobility 	totalDistance 	372.31384623715
scalar RSUExampleScenario.node[654].veinsmobility 	totalCO2Emission 	130.19172901973
scalar RSUExampleScenario.node[655].veinsmobility 	startTime 	1965.1
scalar RSUExampleScenario.node[655].veinsmobility 	totalTime 	34.8
scalar RSUExampleScenario.node[655].veinsmobility 	stopTime 	2000
scalar RSUExampleScenario.node[655].veinsmobility 	minSpeed 	0.24806623968226
scalar RSUExampleScenario.node[655].veinsmobility 	maxSpeed 	13.999700825075
scalar RSUExampleScenario.node[655].veinsmobility 	totalDistance 	330.62318875347
scalar RSUExampleScenario.node[655].veinsmobility 	totalCO2Emission 	121.99534558441
scalar RSUExampleScenario.node[656].veinsmobility 	startTime 	1968.1
scalar RSUExampleScenario.node[656].veinsmobility 	totalTime 	31.8
scalar RSUExampleScenario.node[656].veinsmobility 	stopTime 	2000
scalar RSUExampleScenario.node[656].veinsmobility 	minSpeed 	0.2476825121555
scalar RSUExampleScenario.node[656].veinsmobility 	maxSpeed 	13.98079121361
scalar RSUExampleScenario.node[656].veinsmobility 	totalDistance 	289.85345513624
scalar RSUExampleScenario.node[656].veinsmobility 	totalCO2Emission 	115.29321727163
scalar RSUExampleScenario.node[657].veinsmobility 	startTime 	1971.1
scalar RSUExampleScenario.node[657].veinsmobility 	totalTime 	28.8
scalar RSUExampleScenario.node[657].veinsmobility 	stopTime 	2000
scalar RSUExampleScenario.node[657].veinsmobility 	minSpeed 	0.24970506284642
scalar RSUExampleScenario.node[657].veinsmobility 	maxSpeed 	13.886414742987
scalar RSUExampleScenario.node[657].veinsmobility 	totalDistance 	248.28947945876
scalar RSUExampleScenario.node[657].veinsmobility 	totalCO2Emission 	98.413534635867
scalar RSUExampleScenario.node[658].veinsmobility 	startTime 	1974.1
scalar RSUExampleScenario.node[658].veinsmobility 	totalTime 	25.8
scalar RSUExampleScenario.node[658].veinsmobility 	stopTime 	2000
scalar RSUExampleScenario.node[658].veinsmobility 	minSpeed 	0.25957308796351
scalar RSUExampleScenario.node[658].veinsmobility 	maxSpeed 	13.874707661176
scalar RSUExampleScenario.node[658].veinsmobility 	totalDistance 	226.08577104045
scalar RSUExampleScenario.node[658].veinsmobility 	totalCO2Emission 	83.206823604721
scalar RSUExampleScenario.node[659].veinsmobility 	startTime 	1977.1
scalar RSUExampleScenario.node[659].veinsmobility 	totalTime 	22.8
scalar RSUExampleScenario.node[659].veinsmobility 	stopTime 	2000
scalar RSUExampleScenario.node[659].veinsmobility 	minSpeed 	0.2471508246907
scalar RSUExampleScenario.node[659].veinsmobility 	maxSpeed 	13.888468419958
scalar RSUExampleScenario.node[659].veinsmobility 	totalDistance 	208.19291762642
scalar RSUExampleScenario.node[659].veinsmobility 	totalCO2Emission 	78.250383764495
scalar RSUExampleScenario.node[660].veinsmobility 	startTime 	1980.1
scalar RSUExampleScenario.node[660].veinsmobility 	totalTime 	19.8
scalar RSUExampleScenario.node[660].veinsmobility 	stopTime 	2000
scalar RSUExampleScenario.node[660].veinsmobility 	minSpeed 	0.25787370683928
scalar RSUExampleScenario.node[660].veinsmobility 	maxSpeed 	13.884165663903
scalar RSUExampleScenario.node[660].veinsmobility 	totalDistance 	175.03346171199
scalar RSUExampleScenario.node[660].veinsmobility 	totalCO2Emission 	75.049968703683
scalar RSUExampleScenario.node[661].veinsmobility 	startTime 	1983.1
scalar RSUExampleScenario.node[661].veinsmobility 	totalTime 	16.8
scalar RSUExampleScenario.node[661].veinsmobility 	stopTime 	2000
scalar RSUExampleScenario.node[661].veinsmobility 	minSpeed 	0.25639248793712
scalar RSUExampleScenario.node[661].veinsmobility 	maxSpeed 	13.882444584733
scalar RSUExampleScenario.node[661].veinsmobility 	totalDistance 	137.57382974827
scalar RSUExampleScenario.node[661].veinsmobility 	totalCO2Emission 	57.206016275551
scalar RSUExampleScenario.node[662].veinsmobility 	startTime 	1986.1
scalar RSUExampleScenario.node[662].veinsmobility 	totalTime 	13.8
scalar RSUExampleScenario.node[662].veinsmobility 	stopTime 	2000
scalar RSUExampleScenario.node[662].veinsmobility 	minSpeed 	0.25439413716202
scalar RSUExampleScenario.node[662].veinsmobility 	maxSpeed 	13.879621336891
scalar RSUExampleScenario.node[662].veinsmobility 	totalDistance 	116.9562254217
scalar RSUExampleScenario.node[662].veinsmobility 	totalCO2Emission 	42.780033905853
scalar RSUExampleScenario.node[663].veinsmobility 	startTime 	1989.1
scalar RSUExampleScenario.node[663].veinsmobility 	totalTime 	10.8
scalar RSUExampleScenario.node[663].veinsmobility 	stopTime 	2000
scalar RSUExampleScenario.node[663].veinsmobility 	minSpeed 	0.25253089689091
scalar RSUExampleScenario.node[663].veinsmobility 	maxSpeed 	13.882002702106
scalar RSUExampleScenario.node[663].veinsmobility 	totalDistance 	97.908716415032
scalar RSUExampleScenario.node[663].veinsmobility 	totalCO2Emission 	39.487877633124
scalar RSUExampleScenario.node[664].veinsmobility 	startTime 	1992.1
scalar RSUExampleScenario.node[664].veinsmobility 	totalTime 	7.8
scalar RSUExampleScenario.node[664].veinsmobility 	stopTime 	2000
scalar RSUExampleScenario.node[664].veinsmobility 	minSpeed 	0.25695956970449
scalar RSUExampleScenario.node[664].veinsmobility 	maxSpeed 	13.837100368978
scalar RSUExampleScenario.node[664].veinsmobility 	totalDistance 	60.181173026143
scalar RSUExampleScenario.node[664].veinsmobility 	totalCO2Emission 	35.518616190372
scalar RSUExampleScenario.node[665].veinsmobility 	startTime 	1995.1
scalar RSUExampleScenario.node[665].veinsmobility 	totalTime 	4.8
scalar RSUExampleScenario.node[665].veinsmobility 	stopTime 	2000
scalar RSUExampleScenario.node[665].veinsmobility 	minSpeed 	0.25773905064561
scalar RSUExampleScenario.node[665].veinsmobility 	maxSpeed 	9.3205647780585
scalar RSUExampleScenario.node[665].veinsmobility 	totalDistance 	23.900578331445
scalar RSUExampleScenario.node[665].veinsmobility 	totalCO2Emission 	17.149910680213
scalar RSUExampleScenario.node[666].veinsmobility 	startTime 	1998.1
scalar RSUExampleScenario.node[666].veinsmobility 	totalTime 	1.8
scalar RSUExampleScenario.node[666].veinsmobility 	stopTime 	2000
scalar RSUExampleScenario.node[666].veinsmobility 	minSpeed 	0.2497237149647
scalar RSUExampleScenario.node[666].veinsmobility 	maxSpeed 	3.6343051710813
scalar RSUExampleScenario.node[666].veinsmobility 	totalDistance 	3.7000821258231
scalar RSUExampleScenario.node[666].veinsmobility 	totalCO2Emission 	3.7347738699008
