version 2
run statisticLeach-172-20150323-04:09:23-2128
attr c 24
attr configname statisticLeach
attr datetime 20150323-04:09:23
attr experiment statisticLeach
attr inifile omnetpp.ini
attr iterationvars "$p=1/20, $c=24"
attr iterationvars2 "$p=1/20, $c=24, $repetition=2"
attr measurement "$p=1/20, $c=24"
attr network RSUExampleScenario
attr p 1/20
attr processid 2128
attr repetition 2
attr replication #2
attr resultdir results
attr runnumber 172
attr seedset 172

scalar . 	c 	24
scalar RSUExampleScenario.node[0].appl 	meanClusterNodes 	0
scalar RSUExampleScenario.node[0].appl 	meanClusterHeadUtility 	0
scalar RSUExampleScenario.node[0].appl 	NumberofCH 	0
scalar RSUExampleScenario.node[0].appl 	NumberofON 	0.27027027027027
scalar RSUExampleScenario.node[0].appl 	NumberofFN 	0.72972972972973
scalar RSUExampleScenario.node[0].veinsmobility 	startTime 	0.1
scalar RSUExampleScenario.node[0].veinsmobility 	totalTime 	449.9
scalar RSUExampleScenario.node[0].veinsmobility 	stopTime 	450
scalar RSUExampleScenario.node[0].veinsmobility 	minSpeed 	0
scalar RSUExampleScenario.node[0].veinsmobility 	maxSpeed 	13.999976207367
scalar RSUExampleScenario.node[0].veinsmobility 	totalDistance 	3134.4557049774
scalar RSUExampleScenario.node[0].veinsmobility 	totalCO2Emission 	841.13615069442
scalar RSUExampleScenario.node[1].appl 	meanClusterNodes 	0
scalar RSUExampleScenario.node[1].appl 	meanClusterHeadUtility 	0
scalar RSUExampleScenario.node[1].appl 	NumberofCH 	0
scalar RSUExampleScenario.node[1].appl 	NumberofON 	0.27027027027027
scalar RSUExampleScenario.node[1].appl 	NumberofFN 	0.72972972972973
scalar RSUExampleScenario.node[1].veinsmobility 	startTime 	2.5
scalar RSUExampleScenario.node[1].veinsmobility 	totalTime 	447.5
scalar RSUExampleScenario.node[1].veinsmobility 	stopTime 	450
scalar RSUExampleScenario.node[1].veinsmobility 	minSpeed 	0
scalar RSUExampleScenario.node[1].veinsmobility 	maxSpeed 	13.999976693592
scalar RSUExampleScenario.node[1].veinsmobility 	totalDistance 	3082.95821345
scalar RSUExampleScenario.node[1].veinsmobility 	totalCO2Emission 	825.40081463465
scalar RSUExampleScenario.node[10].appl 	meanClusterNodes 	4
scalar RSUExampleScenario.node[10].appl 	meanClusterHeadUtility 	18.283941316767
scalar RSUExampleScenario.node[10].appl 	NumberofCH 	0.054054054054054
scalar RSUExampleScenario.node[10].appl 	NumberofON 	0.51351351351351
scalar RSUExampleScenario.node[10].appl 	NumberofFN 	0.43243243243243
scalar RSUExampleScenario.node[10].veinsmobility 	startTime 	24.2
scalar RSUExampleScenario.node[10].veinsmobility 	totalTime 	425.8
scalar RSUExampleScenario.node[10].veinsmobility 	stopTime 	450
scalar RSUExampleScenario.node[10].veinsmobility 	minSpeed 	0
scalar RSUExampleScenario.node[10].veinsmobility 	maxSpeed 	13.99989189832
scalar RSUExampleScenario.node[10].veinsmobility 	totalDistance 	2793.5381675077
scalar RSUExampleScenario.node[10].veinsmobility 	totalCO2Emission 	758.59411083474
scalar RSUExampleScenario.node[11].appl 	meanClusterNodes 	4.25
scalar RSUExampleScenario.node[11].appl 	meanClusterHeadUtility 	8.3231422330625
scalar RSUExampleScenario.node[11].appl 	NumberofCH 	0.10810810810811
scalar RSUExampleScenario.node[11].appl 	NumberofON 	0.54054054054054
scalar RSUExampleScenario.node[11].appl 	NumberofFN 	0.35135135135135
scalar RSUExampleScenario.node[11].veinsmobility 	startTime 	26.6
scalar RSUExampleScenario.node[11].veinsmobility 	totalTime 	423.4
scalar RSUExampleScenario.node[11].veinsmobility 	stopTime 	450
scalar RSUExampleScenario.node[11].veinsmobility 	minSpeed 	0
scalar RSUExampleScenario.node[11].veinsmobility 	maxSpeed 	13.999828202163
scalar RSUExampleScenario.node[11].veinsmobility 	totalDistance 	2753.9515655649
scalar RSUExampleScenario.node[11].veinsmobility 	totalCO2Emission 	754.10618084765
scalar RSUExampleScenario.node[12].appl 	meanClusterNodes 	11.25
scalar RSUExampleScenario.node[12].appl 	meanClusterHeadUtility 	8.7702554324445
scalar RSUExampleScenario.node[12].appl 	NumberofCH 	0.10810810810811
scalar RSUExampleScenario.node[12].appl 	NumberofON 	0.48648648648649
scalar RSUExampleScenario.node[12].appl 	NumberofFN 	0.40540540540541
scalar RSUExampleScenario.node[12].veinsmobility 	startTime 	29
scalar RSUExampleScenario.node[12].veinsmobility 	totalTime 	421
scalar RSUExampleScenario.node[12].veinsmobility 	stopTime 	450
scalar RSUExampleScenario.node[12].veinsmobility 	minSpeed 	0
scalar RSUExampleScenario.node[12].veinsmobility 	maxSpeed 	13.999995896963
scalar RSUExampleScenario.node[12].veinsmobility 	totalDistance 	2723.8148741998
scalar RSUExampleScenario.node[12].veinsmobility 	totalCO2Emission 	745.71294140463
scalar RSUExampleScenario.node[13].appl 	meanClusterNodes 	5
scalar RSUExampleScenario.node[13].appl 	meanClusterHeadUtility 	16.57925440874
scalar RSUExampleScenario.node[13].appl 	NumberofCH 	0.054054054054054
scalar RSUExampleScenario.node[13].appl 	NumberofON 	0.48648648648649
scalar RSUExampleScenario.node[13].appl 	NumberofFN 	0.45945945945946
scalar RSUExampleScenario.node[13].veinsmobility 	startTime 	31.4
scalar RSUExampleScenario.node[13].veinsmobility 	totalTime 	418.6
scalar RSUExampleScenario.node[13].veinsmobility 	stopTime 	450
scalar RSUExampleScenario.node[13].veinsmobility 	minSpeed 	0
scalar RSUExampleScenario.node[13].veinsmobility 	maxSpeed 	13.999982742618
scalar RSUExampleScenario.node[13].veinsmobility 	totalDistance 	2680.1225883653
scalar RSUExampleScenario.node[13].veinsmobility 	totalCO2Emission 	742.56101285423
scalar RSUExampleScenario.node[14].appl 	meanClusterNodes 	0
scalar RSUExampleScenario.node[14].appl 	meanClusterHeadUtility 	0
scalar RSUExampleScenario.node[14].appl 	NumberofCH 	0
scalar RSUExampleScenario.node[14].appl 	NumberofON 	0.64864864864865
scalar RSUExampleScenario.node[14].appl 	NumberofFN 	0.35135135135135
scalar RSUExampleScenario.node[14].veinsmobility 	startTime 	33.8
scalar RSUExampleScenario.node[14].veinsmobility 	totalTime 	416.2
scalar RSUExampleScenario.node[14].veinsmobility 	stopTime 	450
scalar RSUExampleScenario.node[14].veinsmobility 	minSpeed 	0
scalar RSUExampleScenario.node[14].veinsmobility 	maxSpeed 	13.99990041676
scalar RSUExampleScenario.node[14].veinsmobility 	totalDistance 	2652.1797430965
scalar RSUExampleScenario.node[14].veinsmobility 	totalCO2Emission 	737.03401320239
scalar RSUExampleScenario.node[15].appl 	meanClusterNodes 	8.75
scalar RSUExampleScenario.node[15].appl 	meanClusterHeadUtility 	8.4885267219635
scalar RSUExampleScenario.node[15].appl 	NumberofCH 	0.10810810810811
scalar RSUExampleScenario.node[15].appl 	NumberofON 	0.32432432432432
scalar RSUExampleScenario.node[15].appl 	NumberofFN 	0.56756756756757
scalar RSUExampleScenario.node[15].veinsmobility 	startTime 	36.2
scalar RSUExampleScenario.node[15].veinsmobility 	totalTime 	413.8
scalar RSUExampleScenario.node[15].veinsmobility 	stopTime 	450
scalar RSUExampleScenario.node[15].veinsmobility 	minSpeed 	0
scalar RSUExampleScenario.node[15].veinsmobility 	maxSpeed 	13.999870598225
scalar RSUExampleScenario.node[15].veinsmobility 	totalDistance 	2613.8442093716
scalar RSUExampleScenario.node[15].veinsmobility 	totalCO2Emission 	731.58882390862
scalar RSUExampleScenario.node[16].appl 	meanClusterNodes 	7
scalar RSUExampleScenario.node[16].appl 	meanClusterHeadUtility 	17.835839290344
scalar RSUExampleScenario.node[16].appl 	NumberofCH 	0.054054054054054
scalar RSUExampleScenario.node[16].appl 	NumberofON 	0.32432432432432
scalar RSUExampleScenario.node[16].appl 	NumberofFN 	0.62162162162162
scalar RSUExampleScenario.node[16].veinsmobility 	startTime 	38.6
scalar RSUExampleScenario.node[16].veinsmobility 	totalTime 	411.4
scalar RSUExampleScenario.node[16].veinsmobility 	stopTime 	450
scalar RSUExampleScenario.node[16].veinsmobility 	minSpeed 	0
scalar RSUExampleScenario.node[16].veinsmobility 	maxSpeed 	13.999931047505
scalar RSUExampleScenario.node[16].veinsmobility 	totalDistance 	2583.9534925879
scalar RSUExampleScenario.node[16].veinsmobility 	totalCO2Emission 	725.02924488668
scalar RSUExampleScenario.node[17].appl 	meanClusterNodes 	7.5
scalar RSUExampleScenario.node[17].appl 	meanClusterHeadUtility 	18.237008989278
scalar RSUExampleScenario.node[17].appl 	NumberofCH 	0.054054054054054
scalar RSUExampleScenario.node[17].appl 	NumberofON 	0.43243243243243
scalar RSUExampleScenario.node[17].appl 	NumberofFN 	0.51351351351351
scalar RSUExampleScenario.node[17].veinsmobility 	startTime 	41
scalar RSUExampleScenario.node[17].veinsmobility 	totalTime 	409
scalar RSUExampleScenario.node[17].veinsmobility 	stopTime 	450
scalar RSUExampleScenario.node[17].veinsmobility 	minSpeed 	0
scalar RSUExampleScenario.node[17].veinsmobility 	maxSpeed 	13.999999218935
scalar RSUExampleScenario.node[17].veinsmobility 	totalDistance 	2538.1859638643
scalar RSUExampleScenario.node[17].veinsmobility 	totalCO2Emission 	715.5708108332
scalar RSUExampleScenario.node[18].appl 	meanClusterNodes 	2.5
scalar RSUExampleScenario.node[18].appl 	meanClusterHeadUtility 	17.37698050892
scalar RSUExampleScenario.node[18].appl 	NumberofCH 	0.054054054054054
scalar RSUExampleScenario.node[18].appl 	NumberofON 	0.48648648648649
scalar RSUExampleScenario.node[18].appl 	NumberofFN 	0.45945945945946
scalar RSUExampleScenario.node[18].veinsmobility 	startTime 	43.4
scalar RSUExampleScenario.node[18].veinsmobility 	totalTime 	406.6
scalar RSUExampleScenario.node[18].veinsmobility 	stopTime 	450
scalar RSUExampleScenario.node[18].veinsmobility 	minSpeed 	0
scalar RSUExampleScenario.node[18].veinsmobility 	maxSpeed 	13.999975181555
scalar RSUExampleScenario.node[18].veinsmobility 	totalDistance 	2508.7198405042
scalar RSUExampleScenario.node[18].veinsmobility 	totalCO2Emission 	711.14308768802
scalar RSUExampleScenario.node[19].appl 	meanClusterNodes 	9
scalar RSUExampleScenario.node[19].appl 	meanClusterHeadUtility 	17.358453405445
scalar RSUExampleScenario.node[19].appl 	NumberofCH 	0.054054054054054
scalar RSUExampleScenario.node[19].appl 	NumberofON 	0.48648648648649
scalar RSUExampleScenario.node[19].appl 	NumberofFN 	0.45945945945946
scalar RSUExampleScenario.node[19].veinsmobility 	startTime 	45.8
scalar RSUExampleScenario.node[19].veinsmobility 	totalTime 	404.2
scalar RSUExampleScenario.node[19].veinsmobility 	stopTime 	450
scalar RSUExampleScenario.node[19].veinsmobility 	minSpeed 	0
scalar RSUExampleScenario.node[19].veinsmobility 	maxSpeed 	13.999994116055
scalar RSUExampleScenario.node[19].veinsmobility 	totalDistance 	2470.4133382552
scalar RSUExampleScenario.node[19].veinsmobility 	totalCO2Emission 	705.40651013309
scalar RSUExampleScenario.node[2].appl 	meanClusterNodes 	4
scalar RSUExampleScenario.node[2].appl 	meanClusterHeadUtility 	20.076887493567
scalar RSUExampleScenario.node[2].appl 	NumberofCH 	0.054054054054054
scalar RSUExampleScenario.node[2].appl 	NumberofON 	0.2972972972973
scalar RSUExampleScenario.node[2].appl 	NumberofFN 	0.64864864864865
scalar RSUExampleScenario.node[2].veinsmobility 	startTime 	4.9
scalar RSUExampleScenario.node[2].veinsmobility 	totalTime 	445.1
scalar RSUExampleScenario.node[2].veinsmobility 	stopTime 	450
scalar RSUExampleScenario.node[2].veinsmobility 	minSpeed 	0
scalar RSUExampleScenario.node[2].veinsmobility 	maxSpeed 	13.999961045438
scalar RSUExampleScenario.node[2].veinsmobility 	totalDistance 	3041.3897349437
scalar RSUExampleScenario.node[2].veinsmobility 	totalCO2Emission 	825.50278855048
scalar RSUExampleScenario.node[20].appl 	meanClusterNodes 	3.5
scalar RSUExampleScenario.node[20].appl 	meanClusterHeadUtility 	18.055188288159
scalar RSUExampleScenario.node[20].appl 	NumberofCH 	0.054054054054054
scalar RSUExampleScenario.node[20].appl 	NumberofON 	0.59459459459459
scalar RSUExampleScenario.node[20].appl 	NumberofFN 	0.35135135135135
scalar RSUExampleScenario.node[20].veinsmobility 	startTime 	48.3
scalar RSUExampleScenario.node[20].veinsmobility 	totalTime 	401.7
scalar RSUExampleScenario.node[20].veinsmobility 	stopTime 	450
scalar RSUExampleScenario.node[20].veinsmobility 	minSpeed 	0
scalar RSUExampleScenario.node[20].veinsmobility 	maxSpeed 	13.999885525638
scalar RSUExampleScenario.node[20].veinsmobility 	totalDistance 	2441.7301113427
scalar RSUExampleScenario.node[20].veinsmobility 	totalCO2Emission 	699.63520331405
scalar RSUExampleScenario.node[21].appl 	meanClusterNodes 	3.5
scalar RSUExampleScenario.node[21].appl 	meanClusterHeadUtility 	16.655738226179
scalar RSUExampleScenario.node[21].appl 	NumberofCH 	0.054054054054054
scalar RSUExampleScenario.node[21].appl 	NumberofON 	0.75675675675676
scalar RSUExampleScenario.node[21].appl 	NumberofFN 	0.18918918918919
scalar RSUExampleScenario.node[21].veinsmobility 	startTime 	50.7
scalar RSUExampleScenario.node[21].veinsmobility 	totalTime 	399.3
scalar RSUExampleScenario.node[21].veinsmobility 	stopTime 	450
scalar RSUExampleScenario.node[21].veinsmobility 	minSpeed 	0
scalar RSUExampleScenario.node[21].veinsmobility 	maxSpeed 	13.999915634503
scalar RSUExampleScenario.node[21].veinsmobility 	totalDistance 	2405.0330481718
scalar RSUExampleScenario.node[21].veinsmobility 	totalCO2Emission 	695.44523251493
scalar RSUExampleScenario.node[22].appl 	meanClusterNodes 	4.5
scalar RSUExampleScenario.node[22].appl 	meanClusterHeadUtility 	9.7323887675247
scalar RSUExampleScenario.node[22].appl 	NumberofCH 	0.10810810810811
scalar RSUExampleScenario.node[22].appl 	NumberofON 	0.56756756756757
scalar RSUExampleScenario.node[22].appl 	NumberofFN 	0.32432432432432
scalar RSUExampleScenario.node[22].veinsmobility 	startTime 	53.1
scalar RSUExampleScenario.node[22].veinsmobility 	totalTime 	396.9
scalar RSUExampleScenario.node[22].veinsmobility 	stopTime 	450
scalar RSUExampleScenario.node[22].veinsmobility 	minSpeed 	0
scalar RSUExampleScenario.node[22].veinsmobility 	maxSpeed 	13.999908681493
scalar RSUExampleScenario.node[22].veinsmobility 	totalDistance 	2375.0405403818
scalar RSUExampleScenario.node[22].veinsmobility 	totalCO2Emission 	688.63568960347
scalar RSUExampleScenario.node[23].appl 	meanClusterNodes 	3.75
scalar RSUExampleScenario.node[23].appl 	meanClusterHeadUtility 	9.2415671407748
scalar RSUExampleScenario.node[23].appl 	NumberofCH 	0.10810810810811
scalar RSUExampleScenario.node[23].appl 	NumberofON 	0.64864864864865
scalar RSUExampleScenario.node[23].appl 	NumberofFN 	0.24324324324324
scalar RSUExampleScenario.node[23].veinsmobility 	startTime 	55.5
scalar RSUExampleScenario.node[23].veinsmobility 	totalTime 	394.5
scalar RSUExampleScenario.node[23].veinsmobility 	stopTime 	450
scalar RSUExampleScenario.node[23].veinsmobility 	minSpeed 	0
scalar RSUExampleScenario.node[23].veinsmobility 	maxSpeed 	13.999990975207
scalar RSUExampleScenario.node[23].veinsmobility 	totalDistance 	2334.9277794909
scalar RSUExampleScenario.node[23].veinsmobility 	totalCO2Emission 	683.68103642506
scalar RSUExampleScenario.node[24].appl 	meanClusterNodes 	0
scalar RSUExampleScenario.node[24].appl 	meanClusterHeadUtility 	0
scalar RSUExampleScenario.node[24].appl 	NumberofCH 	0
scalar RSUExampleScenario.node[24].appl 	NumberofON 	0.43243243243243
scalar RSUExampleScenario.node[24].appl 	NumberofFN 	0.56756756756757
scalar RSUExampleScenario.node[24].veinsmobility 	startTime 	57.9
scalar RSUExampleScenario.node[24].veinsmobility 	totalTime 	392.1
scalar RSUExampleScenario.node[24].veinsmobility 	stopTime 	450
scalar RSUExampleScenario.node[24].veinsmobility 	minSpeed 	0
scalar RSUExampleScenario.node[24].veinsmobility 	maxSpeed 	13.999995900837
scalar RSUExampleScenario.node[24].veinsmobility 	totalDistance 	2306.4016968186
scalar RSUExampleScenario.node[24].veinsmobility 	totalCO2Emission 	677.60670766429
scalar RSUExampleScenario.node[25].appl 	meanClusterNodes 	6.75
scalar RSUExampleScenario.node[25].appl 	meanClusterHeadUtility 	8.6478137627349
scalar RSUExampleScenario.node[25].appl 	NumberofCH 	0.10810810810811
scalar RSUExampleScenario.node[25].appl 	NumberofON 	0.18918918918919
scalar RSUExampleScenario.node[25].appl 	NumberofFN 	0.7027027027027
scalar RSUExampleScenario.node[25].veinsmobility 	startTime 	60.3
scalar RSUExampleScenario.node[25].veinsmobility 	totalTime 	389.7
scalar RSUExampleScenario.node[25].veinsmobility 	stopTime 	450
scalar RSUExampleScenario.node[25].veinsmobility 	minSpeed 	0
scalar RSUExampleScenario.node[25].veinsmobility 	maxSpeed 	13.999895298323
scalar RSUExampleScenario.node[25].veinsmobility 	totalDistance 	2268.767443762
scalar RSUExampleScenario.node[25].veinsmobility 	totalCO2Emission 	674.13901049771
scalar RSUExampleScenario.node[26].appl 	meanClusterNodes 	4.75
scalar RSUExampleScenario.node[26].appl 	meanClusterHeadUtility 	8.486170301702
scalar RSUExampleScenario.node[26].appl 	NumberofCH 	0.10810810810811
scalar RSUExampleScenario.node[26].appl 	NumberofON 	0.35135135135135
scalar RSUExampleScenario.node[26].appl 	NumberofFN 	0.54054054054054
scalar RSUExampleScenario.node[26].veinsmobility 	startTime 	62.7
scalar RSUExampleScenario.node[26].veinsmobility 	totalTime 	387.3
scalar RSUExampleScenario.node[26].veinsmobility 	stopTime 	450
scalar RSUExampleScenario.node[26].veinsmobility 	minSpeed 	0
scalar RSUExampleScenario.node[26].veinsmobility 	maxSpeed 	13.999896538039
scalar RSUExampleScenario.node[26].veinsmobility 	totalDistance 	2238.8208228122
scalar RSUExampleScenario.node[26].veinsmobility 	totalCO2Emission 	668.83211162482
scalar RSUExampleScenario.node[27].appl 	meanClusterNodes 	1.5
scalar RSUExampleScenario.node[27].appl 	meanClusterHeadUtility 	16.993924347667
scalar RSUExampleScenario.node[27].appl 	NumberofCH 	0.054054054054054
scalar RSUExampleScenario.node[27].appl 	NumberofON 	0.67567567567568
scalar RSUExampleScenario.node[27].appl 	NumberofFN 	0.27027027027027
scalar RSUExampleScenario.node[27].veinsmobility 	startTime 	65.1
scalar RSUExampleScenario.node[27].veinsmobility 	totalTime 	384.9
scalar RSUExampleScenario.node[27].veinsmobility 	stopTime 	450
scalar RSUExampleScenario.node[27].veinsmobility 	minSpeed 	0
scalar RSUExampleScenario.node[27].veinsmobility 	maxSpeed 	13.999936097143
scalar RSUExampleScenario.node[27].veinsmobility 	totalDistance 	2200.9311556338
scalar RSUExampleScenario.node[27].veinsmobility 	totalCO2Emission 	662.47862949688
scalar RSUExampleScenario.node[28].appl 	meanClusterNodes 	0
scalar RSUExampleScenario.node[28].appl 	meanClusterHeadUtility 	0
scalar RSUExampleScenario.node[28].appl 	NumberofCH 	0
scalar RSUExampleScenario.node[28].appl 	NumberofON 	0.56756756756757
scalar RSUExampleScenario.node[28].appl 	NumberofFN 	0.43243243243243
scalar RSUExampleScenario.node[28].veinsmobility 	startTime 	67.5
scalar RSUExampleScenario.node[28].veinsmobility 	totalTime 	382.5
scalar RSUExampleScenario.node[28].veinsmobility 	stopTime 	450
scalar RSUExampleScenario.node[28].veinsmobility 	minSpeed 	0
scalar RSUExampleScenario.node[28].veinsmobility 	maxSpeed 	13.999957406954
scalar RSUExampleScenario.node[28].veinsmobility 	totalDistance 	2169.3570145268
scalar RSUExampleScenario.node[28].veinsmobility 	totalCO2Emission 	656.16768390275
scalar RSUExampleScenario.node[29].appl 	meanClusterNodes 	0
scalar RSUExampleScenario.node[29].appl 	meanClusterHeadUtility 	0
scalar RSUExampleScenario.node[29].appl 	NumberofCH 	0.054054054054054
scalar RSUExampleScenario.node[29].appl 	NumberofON 	0.35135135135135
scalar RSUExampleScenario.node[29].appl 	NumberofFN 	0.59459459459459
scalar RSUExampleScenario.node[29].veinsmobility 	startTime 	69.9
scalar RSUExampleScenario.node[29].veinsmobility 	totalTime 	380.1
scalar RSUExampleScenario.node[29].veinsmobility 	stopTime 	450
scalar RSUExampleScenario.node[29].veinsmobility 	minSpeed 	0
scalar RSUExampleScenario.node[29].veinsmobility 	maxSpeed 	13.999868799581
scalar RSUExampleScenario.node[29].veinsmobility 	totalDistance 	2134.0526498086
scalar RSUExampleScenario.node[29].veinsmobility 	totalCO2Emission 	652.1555455137
scalar RSUExampleScenario.node[3].appl 	meanClusterNodes 	1.25
scalar RSUExampleScenario.node[3].appl 	meanClusterHeadUtility 	9.160698123241
scalar RSUExampleScenario.node[3].appl 	NumberofCH 	0.10810810810811
scalar RSUExampleScenario.node[3].appl 	NumberofON 	0.51351351351351
scalar RSUExampleScenario.node[3].appl 	NumberofFN 	0.37837837837838
scalar RSUExampleScenario.node[3].veinsmobility 	startTime 	7.3
scalar RSUExampleScenario.node[3].veinsmobility 	totalTime 	442.7
scalar RSUExampleScenario.node[3].veinsmobility 	stopTime 	450
scalar RSUExampleScenario.node[3].veinsmobility 	minSpeed 	0
scalar RSUExampleScenario.node[3].veinsmobility 	maxSpeed 	13.999985605455
scalar RSUExampleScenario.node[3].veinsmobility 	totalDistance 	2993.5399228022
scalar RSUExampleScenario.node[3].veinsmobility 	totalCO2Emission 	814.11731792181
scalar RSUExampleScenario.node[30].appl 	meanClusterNodes 	5
scalar RSUExampleScenario.node[30].appl 	meanClusterHeadUtility 	17.28774930327
scalar RSUExampleScenario.node[30].appl 	NumberofCH 	0.054054054054054
scalar RSUExampleScenario.node[30].appl 	NumberofON 	0.37837837837838
scalar RSUExampleScenario.node[30].appl 	NumberofFN 	0.56756756756757
scalar RSUExampleScenario.node[30].veinsmobility 	startTime 	72.4
scalar RSUExampleScenario.node[30].veinsmobility 	totalTime 	377.6
scalar RSUExampleScenario.node[30].veinsmobility 	stopTime 	450
scalar RSUExampleScenario.node[30].veinsmobility 	minSpeed 	0
scalar RSUExampleScenario.node[30].veinsmobility 	maxSpeed 	13.999930969959
scalar RSUExampleScenario.node[30].veinsmobility 	totalDistance 	2102.2521958205
scalar RSUExampleScenario.node[30].veinsmobility 	totalCO2Emission 	643.32241053093
scalar RSUExampleScenario.node[31].appl 	meanClusterNodes 	2
scalar RSUExampleScenario.node[31].appl 	meanClusterHeadUtility 	17.934532455987
scalar RSUExampleScenario.node[31].appl 	NumberofCH 	0.054054054054054
scalar RSUExampleScenario.node[31].appl 	NumberofON 	0.2972972972973
scalar RSUExampleScenario.node[31].appl 	NumberofFN 	0.64864864864865
scalar RSUExampleScenario.node[31].veinsmobility 	startTime 	74.8
scalar RSUExampleScenario.node[31].veinsmobility 	totalTime 	375.2
scalar RSUExampleScenario.node[31].veinsmobility 	stopTime 	450
scalar RSUExampleScenario.node[31].veinsmobility 	minSpeed 	0
scalar RSUExampleScenario.node[31].veinsmobility 	maxSpeed 	13.999928389098
scalar RSUExampleScenario.node[31].veinsmobility 	totalDistance 	2067.3216502298
scalar RSUExampleScenario.node[31].veinsmobility 	totalCO2Emission 	637.72009674228
scalar RSUExampleScenario.node[32].appl 	meanClusterNodes 	0
scalar RSUExampleScenario.node[32].appl 	meanClusterHeadUtility 	0
scalar RSUExampleScenario.node[32].appl 	NumberofCH 	0
scalar RSUExampleScenario.node[32].appl 	NumberofON 	0.27027027027027
scalar RSUExampleScenario.node[32].appl 	NumberofFN 	0.72972972972973
scalar RSUExampleScenario.node[32].veinsmobility 	startTime 	77.2
scalar RSUExampleScenario.node[32].veinsmobility 	totalTime 	372.8
scalar RSUExampleScenario.node[32].veinsmobility 	stopTime 	450
scalar RSUExampleScenario.node[32].veinsmobility 	minSpeed 	0
scalar RSUExampleScenario.node[32].veinsmobility 	maxSpeed 	13.999900863424
scalar RSUExampleScenario.node[32].veinsmobility 	totalDistance 	2033.2449787667
scalar RSUExampleScenario.node[32].veinsmobility 	totalCO2Emission 	634.85388189393
scalar RSUExampleScenario.node[33].appl 	meanClusterNodes 	0
scalar RSUExampleScenario.node[33].appl 	meanClusterHeadUtility 	0
scalar RSUExampleScenario.node[33].appl 	NumberofCH 	0
scalar RSUExampleScenario.node[33].appl 	NumberofON 	0.54054054054054
scalar RSUExampleScenario.node[33].appl 	NumberofFN 	0.45945945945946
scalar RSUExampleScenario.node[33].veinsmobility 	startTime 	79.6
scalar RSUExampleScenario.node[33].veinsmobility 	totalTime 	370.4
scalar RSUExampleScenario.node[33].veinsmobility 	stopTime 	450
scalar RSUExampleScenario.node[33].veinsmobility 	minSpeed 	0
scalar RSUExampleScenario.node[33].veinsmobility 	maxSpeed 	13.999923696108
scalar RSUExampleScenario.node[33].veinsmobility 	totalDistance 	2000.2377811059
scalar RSUExampleScenario.node[33].veinsmobility 	totalCO2Emission 	627.29070318311
scalar RSUExampleScenario.node[34].appl 	meanClusterNodes 	2.5
scalar RSUExampleScenario.node[34].appl 	meanClusterHeadUtility 	16.430899723823
scalar RSUExampleScenario.node[34].appl 	NumberofCH 	0.054054054054054
scalar RSUExampleScenario.node[34].appl 	NumberofON 	0.35135135135135
scalar RSUExampleScenario.node[34].appl 	NumberofFN 	0.59459459459459
scalar RSUExampleScenario.node[34].veinsmobility 	startTime 	82
scalar RSUExampleScenario.node[34].veinsmobility 	totalTime 	368
scalar RSUExampleScenario.node[34].veinsmobility 	stopTime 	450
scalar RSUExampleScenario.node[34].veinsmobility 	minSpeed 	0
scalar RSUExampleScenario.node[34].veinsmobility 	maxSpeed 	13.999667593129
scalar RSUExampleScenario.node[34].veinsmobility 	totalDistance 	1964.0447158029
scalar RSUExampleScenario.node[34].veinsmobility 	totalCO2Emission 	619.91289032854
scalar RSUExampleScenario.node[35].appl 	meanClusterNodes 	0
scalar RSUExampleScenario.node[35].appl 	meanClusterHeadUtility 	0
scalar RSUExampleScenario.node[35].appl 	NumberofCH 	0
scalar RSUExampleScenario.node[35].appl 	NumberofON 	0.24324324324324
scalar RSUExampleScenario.node[35].appl 	NumberofFN 	0.75675675675676
scalar RSUExampleScenario.node[35].veinsmobility 	startTime 	84.4
scalar RSUExampleScenario.node[35].veinsmobility 	totalTime 	365.6
scalar RSUExampleScenario.node[35].veinsmobility 	stopTime 	450
scalar RSUExampleScenario.node[35].veinsmobility 	minSpeed 	0
scalar RSUExampleScenario.node[35].veinsmobility 	maxSpeed 	13.999916857632
scalar RSUExampleScenario.node[35].veinsmobility 	totalDistance 	1931.0875661327
scalar RSUExampleScenario.node[35].veinsmobility 	totalCO2Emission 	613.97543661921
scalar RSUExampleScenario.node[36].appl 	meanClusterNodes 	10.666666666667
scalar RSUExampleScenario.node[36].appl 	meanClusterHeadUtility 	11.394396715903
scalar RSUExampleScenario.node[36].appl 	NumberofCH 	0.081081081081081
scalar RSUExampleScenario.node[36].appl 	NumberofON 	0.2972972972973
scalar RSUExampleScenario.node[36].appl 	NumberofFN 	0.62162162162162
scalar RSUExampleScenario.node[36].veinsmobility 	startTime 	86.8
scalar RSUExampleScenario.node[36].veinsmobility 	totalTime 	363.2
scalar RSUExampleScenario.node[36].veinsmobility 	stopTime 	450
scalar RSUExampleScenario.node[36].veinsmobility 	minSpeed 	0
scalar RSUExampleScenario.node[36].veinsmobility 	maxSpeed 	13.999869564967
scalar RSUExampleScenario.node[36].veinsmobility 	totalDistance 	1897.1827371198
scalar RSUExampleScenario.node[36].veinsmobility 	totalCO2Emission 	610.19932207128
scalar RSUExampleScenario.node[37].appl 	meanClusterNodes 	0
scalar RSUExampleScenario.node[37].appl 	meanClusterHeadUtility 	0
scalar RSUExampleScenario.node[37].appl 	NumberofCH 	0
scalar RSUExampleScenario.node[37].appl 	NumberofON 	0.40540540540541
scalar RSUExampleScenario.node[37].appl 	NumberofFN 	0.59459459459459
scalar RSUExampleScenario.node[37].veinsmobility 	startTime 	89.2
scalar RSUExampleScenario.node[37].veinsmobility 	totalTime 	360.8
scalar RSUExampleScenario.node[37].veinsmobility 	stopTime 	450
scalar RSUExampleScenario.node[37].veinsmobility 	minSpeed 	0
scalar RSUExampleScenario.node[37].veinsmobility 	maxSpeed 	13.999880320786
scalar RSUExampleScenario.node[37].veinsmobility 	totalDistance 	1864.9618889087
scalar RSUExampleScenario.node[37].veinsmobility 	totalCO2Emission 	604.93507176946
scalar RSUExampleScenario.node[38].appl 	meanClusterNodes 	2.25
scalar RSUExampleScenario.node[38].appl 	meanClusterHeadUtility 	9.3294976575853
scalar RSUExampleScenario.node[38].appl 	NumberofCH 	0.10810810810811
scalar RSUExampleScenario.node[38].appl 	NumberofON 	0.10810810810811
scalar RSUExampleScenario.node[38].appl 	NumberofFN 	0.78378378378378
scalar RSUExampleScenario.node[38].veinsmobility 	startTime 	91.6
scalar RSUExampleScenario.node[38].veinsmobility 	totalTime 	358.4
scalar RSUExampleScenario.node[38].veinsmobility 	stopTime 	450
scalar RSUExampleScenario.node[38].veinsmobility 	minSpeed 	0
scalar RSUExampleScenario.node[38].veinsmobility 	maxSpeed 	13.999965399154
scalar RSUExampleScenario.node[38].veinsmobility 	totalDistance 	1831.5455057329
scalar RSUExampleScenario.node[38].veinsmobility 	totalCO2Emission 	600.99862299589
scalar RSUExampleScenario.node[39].appl 	meanClusterNodes 	1
scalar RSUExampleScenario.node[39].appl 	meanClusterHeadUtility 	15.470596621035
scalar RSUExampleScenario.node[39].appl 	NumberofCH 	0.054054054054054
scalar RSUExampleScenario.node[39].appl 	NumberofON 	0.37837837837838
scalar RSUExampleScenario.node[39].appl 	NumberofFN 	0.56756756756757
scalar RSUExampleScenario.node[39].veinsmobility 	startTime 	94
scalar RSUExampleScenario.node[39].veinsmobility 	totalTime 	356
scalar RSUExampleScenario.node[39].veinsmobility 	stopTime 	450
scalar RSUExampleScenario.node[39].veinsmobility 	minSpeed 	0
scalar RSUExampleScenario.node[39].veinsmobility 	maxSpeed 	13.999905261786
scalar RSUExampleScenario.node[39].veinsmobility 	totalDistance 	1796.9302849605
scalar RSUExampleScenario.node[39].veinsmobility 	totalCO2Emission 	593.33149792226
scalar RSUExampleScenario.node[4].appl 	meanClusterNodes 	2.5
scalar RSUExampleScenario.node[4].appl 	meanClusterHeadUtility 	19.049316378386
scalar RSUExampleScenario.node[4].appl 	NumberofCH 	0.054054054054054
scalar RSUExampleScenario.node[4].appl 	NumberofON 	0.59459459459459
scalar RSUExampleScenario.node[4].appl 	NumberofFN 	0.35135135135135
scalar RSUExampleScenario.node[4].veinsmobility 	startTime 	9.7
scalar RSUExampleScenario.node[4].veinsmobility 	totalTime 	440.3
scalar RSUExampleScenario.node[4].veinsmobility 	stopTime 	450
scalar RSUExampleScenario.node[4].veinsmobility 	minSpeed 	0
scalar RSUExampleScenario.node[4].veinsmobility 	maxSpeed 	13.999915656811
scalar RSUExampleScenario.node[4].veinsmobility 	totalDistance 	2952.2755957472
scalar RSUExampleScenario.node[4].veinsmobility 	totalCO2Emission 	798.88203370012
scalar RSUExampleScenario.node[40].appl 	meanClusterNodes 	0
scalar RSUExampleScenario.node[40].appl 	meanClusterHeadUtility 	0
scalar RSUExampleScenario.node[40].appl 	NumberofCH 	0
scalar RSUExampleScenario.node[40].appl 	NumberofON 	0.24324324324324
scalar RSUExampleScenario.node[40].appl 	NumberofFN 	0.75675675675676
scalar RSUExampleScenario.node[40].veinsmobility 	startTime 	96.5
scalar RSUExampleScenario.node[40].veinsmobility 	totalTime 	353.5
scalar RSUExampleScenario.node[40].veinsmobility 	stopTime 	450
scalar RSUExampleScenario.node[40].veinsmobility 	minSpeed 	0
scalar RSUExampleScenario.node[40].veinsmobility 	maxSpeed 	13.999994040627
scalar RSUExampleScenario.node[40].veinsmobility 	totalDistance 	1764.6486426359
scalar RSUExampleScenario.node[40].veinsmobility 	totalCO2Emission 	585.92662521787
scalar RSUExampleScenario.node[41].appl 	meanClusterNodes 	4.3333333333333
scalar RSUExampleScenario.node[41].appl 	meanClusterHeadUtility 	11.426202566315
scalar RSUExampleScenario.node[41].appl 	NumberofCH 	0.081081081081081
scalar RSUExampleScenario.node[41].appl 	NumberofON 	0.2972972972973
scalar RSUExampleScenario.node[41].appl 	NumberofFN 	0.62162162162162
scalar RSUExampleScenario.node[41].veinsmobility 	startTime 	98.9
scalar RSUExampleScenario.node[41].veinsmobility 	totalTime 	351.1
scalar RSUExampleScenario.node[41].veinsmobility 	stopTime 	450
scalar RSUExampleScenario.node[41].veinsmobility 	minSpeed 	0
scalar RSUExampleScenario.node[41].veinsmobility 	maxSpeed 	13.999967398082
scalar RSUExampleScenario.node[41].veinsmobility 	totalDistance 	1730.6712551062
scalar RSUExampleScenario.node[41].veinsmobility 	totalCO2Emission 	578.47774331611
scalar RSUExampleScenario.node[42].appl 	meanClusterNodes 	0
scalar RSUExampleScenario.node[42].appl 	meanClusterHeadUtility 	0
scalar RSUExampleScenario.node[42].appl 	NumberofCH 	0
scalar RSUExampleScenario.node[42].appl 	NumberofON 	0.37837837837838
scalar RSUExampleScenario.node[42].appl 	NumberofFN 	0.62162162162162
scalar RSUExampleScenario.node[42].veinsmobility 	startTime 	101.3
scalar RSUExampleScenario.node[42].veinsmobility 	totalTime 	348.7
scalar RSUExampleScenario.node[42].veinsmobility 	stopTime 	450
scalar RSUExampleScenario.node[42].veinsmobility 	minSpeed 	0
scalar RSUExampleScenario.node[42].veinsmobility 	maxSpeed 	13.99992453774
scalar RSUExampleScenario.node[42].veinsmobility 	totalDistance 	1697.6335400719
scalar RSUExampleScenario.node[42].veinsmobility 	totalCO2Emission 	575.77879407325
scalar RSUExampleScenario.node[43].appl 	meanClusterNodes 	2
scalar RSUExampleScenario.node[43].appl 	meanClusterHeadUtility 	16.131035746882
scalar RSUExampleScenario.node[43].appl 	NumberofCH 	0.054054054054054
scalar RSUExampleScenario.node[43].appl 	NumberofON 	0.40540540540541
scalar RSUExampleScenario.node[43].appl 	NumberofFN 	0.54054054054054
scalar RSUExampleScenario.node[43].veinsmobility 	startTime 	103.7
scalar RSUExampleScenario.node[43].veinsmobility 	totalTime 	346.3
scalar RSUExampleScenario.node[43].veinsmobility 	stopTime 	450
scalar RSUExampleScenario.node[43].veinsmobility 	minSpeed 	0
scalar RSUExampleScenario.node[43].veinsmobility 	maxSpeed 	13.999892792588
scalar RSUExampleScenario.node[43].veinsmobility 	totalDistance 	1663.6827399347
scalar RSUExampleScenario.node[43].veinsmobility 	totalCO2Emission 	568.97690020871
scalar RSUExampleScenario.node[44].appl 	meanClusterNodes 	0
scalar RSUExampleScenario.node[44].appl 	meanClusterHeadUtility 	0
scalar RSUExampleScenario.node[44].appl 	NumberofCH 	0
scalar RSUExampleScenario.node[44].appl 	NumberofON 	0.18918918918919
scalar RSUExampleScenario.node[44].appl 	NumberofFN 	0.81081081081081
scalar RSUExampleScenario.node[44].veinsmobility 	startTime 	106.1
scalar RSUExampleScenario.node[44].veinsmobility 	totalTime 	343.9
scalar RSUExampleScenario.node[44].veinsmobility 	stopTime 	450
scalar RSUExampleScenario.node[44].veinsmobility 	minSpeed 	0
scalar RSUExampleScenario.node[44].veinsmobility 	maxSpeed 	13.999914331164
scalar RSUExampleScenario.node[44].veinsmobility 	totalDistance 	1628.7501295277
scalar RSUExampleScenario.node[44].veinsmobility 	totalCO2Emission 	566.42485592967
scalar RSUExampleScenario.node[45].appl 	meanClusterNodes 	3.25
scalar RSUExampleScenario.node[45].appl 	meanClusterHeadUtility 	7.5893092059814
scalar RSUExampleScenario.node[45].appl 	NumberofCH 	0.10810810810811
scalar RSUExampleScenario.node[45].appl 	NumberofON 	0.48648648648649
scalar RSUExampleScenario.node[45].appl 	NumberofFN 	0.40540540540541
scalar RSUExampleScenario.node[45].veinsmobility 	startTime 	108.5
scalar RSUExampleScenario.node[45].veinsmobility 	totalTime 	341.5
scalar RSUExampleScenario.node[45].veinsmobility 	stopTime 	450
scalar RSUExampleScenario.node[45].veinsmobility 	minSpeed 	0
scalar RSUExampleScenario.node[45].veinsmobility 	maxSpeed 	13.999965247512
scalar RSUExampleScenario.node[45].veinsmobility 	totalDistance 	1595.3014244563
scalar RSUExampleScenario.node[45].veinsmobility 	totalCO2Emission 	557.52289586678
scalar RSUExampleScenario.node[46].appl 	meanClusterNodes 	6.5
scalar RSUExampleScenario.node[46].appl 	meanClusterHeadUtility 	17.864272227618
scalar RSUExampleScenario.node[46].appl 	NumberofCH 	0.054054054054054
scalar RSUExampleScenario.node[46].appl 	NumberofON 	0.27027027027027
scalar RSUExampleScenario.node[46].appl 	NumberofFN 	0.67567567567568
scalar RSUExampleScenario.node[46].veinsmobility 	startTime 	110.9
scalar RSUExampleScenario.node[46].veinsmobility 	totalTime 	339.1
scalar RSUExampleScenario.node[46].veinsmobility 	stopTime 	450
scalar RSUExampleScenario.node[46].veinsmobility 	minSpeed 	0
scalar RSUExampleScenario.node[46].veinsmobility 	maxSpeed 	13.999982684806
scalar RSUExampleScenario.node[46].veinsmobility 	totalDistance 	1561.2898264727
scalar RSUExampleScenario.node[46].veinsmobility 	totalCO2Emission 	552.41915870474
scalar RSUExampleScenario.node[47].appl 	meanClusterNodes 	0
scalar RSUExampleScenario.node[47].appl 	meanClusterHeadUtility 	0
scalar RSUExampleScenario.node[47].appl 	NumberofCH 	0
scalar RSUExampleScenario.node[47].appl 	NumberofON 	0.32432432432432
scalar RSUExampleScenario.node[47].appl 	NumberofFN 	0.67567567567568
scalar RSUExampleScenario.node[47].veinsmobility 	startTime 	113.3
scalar RSUExampleScenario.node[47].veinsmobility 	totalTime 	336.7
scalar RSUExampleScenario.node[47].veinsmobility 	stopTime 	450
scalar RSUExampleScenario.node[47].veinsmobility 	minSpeed 	0
scalar RSUExampleScenario.node[47].veinsmobility 	maxSpeed 	13.999848407495
scalar RSUExampleScenario.node[47].veinsmobility 	totalDistance 	1528.9471466762
scalar RSUExampleScenario.node[47].veinsmobility 	totalCO2Emission 	544.95393936715
scalar RSUExampleScenario.node[48].appl 	meanClusterNodes 	0
scalar RSUExampleScenario.node[48].appl 	meanClusterHeadUtility 	0
scalar RSUExampleScenario.node[48].appl 	NumberofCH 	0
scalar RSUExampleScenario.node[48].appl 	NumberofON 	0.40540540540541
scalar RSUExampleScenario.node[48].appl 	NumberofFN 	0.59459459459459
scalar RSUExampleScenario.node[48].veinsmobility 	startTime 	115.7
scalar RSUExampleScenario.node[48].veinsmobility 	totalTime 	334.3
scalar RSUExampleScenario.node[48].veinsmobility 	stopTime 	450
scalar RSUExampleScenario.node[48].veinsmobility 	minSpeed 	0
scalar RSUExampleScenario.node[48].veinsmobility 	maxSpeed 	13.999907260048
scalar RSUExampleScenario.node[48].veinsmobility 	totalDistance 	1493.710227488
scalar RSUExampleScenario.node[48].veinsmobility 	totalCO2Emission 	541.33120910556
scalar RSUExampleScenario.node[49].appl 	meanClusterNodes 	0
scalar RSUExampleScenario.node[49].appl 	meanClusterHeadUtility 	0
scalar RSUExampleScenario.node[49].appl 	NumberofCH 	0
scalar RSUExampleScenario.node[49].appl 	NumberofON 	0.45945945945946
scalar RSUExampleScenario.node[49].appl 	NumberofFN 	0.54054054054054
scalar RSUExampleScenario.node[49].veinsmobility 	startTime 	118.1
scalar RSUExampleScenario.node[49].veinsmobility 	totalTime 	331.9
scalar RSUExampleScenario.node[49].veinsmobility 	stopTime 	450
scalar RSUExampleScenario.node[49].veinsmobility 	minSpeed 	0
scalar RSUExampleScenario.node[49].veinsmobility 	maxSpeed 	13.999866279983
scalar RSUExampleScenario.node[49].veinsmobility 	totalDistance 	1460.2112022031
scalar RSUExampleScenario.node[49].veinsmobility 	totalCO2Emission 	534.9490371773
scalar RSUExampleScenario.node[5].appl 	meanClusterNodes 	0
scalar RSUExampleScenario.node[5].appl 	meanClusterHeadUtility 	0
scalar RSUExampleScenario.node[5].appl 	NumberofCH 	0
scalar RSUExampleScenario.node[5].appl 	NumberofON 	0.37837837837838
scalar RSUExampleScenario.node[5].appl 	NumberofFN 	0.62162162162162
scalar RSUExampleScenario.node[5].veinsmobility 	startTime 	12.1
scalar RSUExampleScenario.node[5].veinsmobility 	totalTime 	437.9
scalar RSUExampleScenario.node[5].veinsmobility 	stopTime 	450
scalar RSUExampleScenario.node[5].veinsmobility 	minSpeed 	0
scalar RSUExampleScenario.node[5].veinsmobility 	maxSpeed 	13.999985597706
scalar RSUExampleScenario.node[5].veinsmobility 	totalDistance 	2913.9683351986
scalar RSUExampleScenario.node[5].veinsmobility 	totalCO2Emission 	786.19320023589
scalar RSUExampleScenario.node[50].appl 	meanClusterNodes 	0
scalar RSUExampleScenario.node[50].appl 	meanClusterHeadUtility 	0
scalar RSUExampleScenario.node[50].appl 	NumberofCH 	0
scalar RSUExampleScenario.node[50].appl 	NumberofON 	0.37837837837838
scalar RSUExampleScenario.node[50].appl 	NumberofFN 	0.62162162162162
scalar RSUExampleScenario.node[50].veinsmobility 	startTime 	120.6
scalar RSUExampleScenario.node[50].veinsmobility 	totalTime 	329.4
scalar RSUExampleScenario.node[50].veinsmobility 	stopTime 	450
scalar RSUExampleScenario.node[50].veinsmobility 	minSpeed 	0
scalar RSUExampleScenario.node[50].veinsmobility 	maxSpeed 	13.999897697757
scalar RSUExampleScenario.node[50].veinsmobility 	totalDistance 	1426.1185916877
scalar RSUExampleScenario.node[50].veinsmobility 	totalCO2Emission 	530.83561045699
scalar RSUExampleScenario.node[51].appl 	meanClusterNodes 	1.5
scalar RSUExampleScenario.node[51].appl 	meanClusterHeadUtility 	17.016797506566
scalar RSUExampleScenario.node[51].appl 	NumberofCH 	0.054054054054054
scalar RSUExampleScenario.node[51].appl 	NumberofON 	0.32432432432432
scalar RSUExampleScenario.node[51].appl 	NumberofFN 	0.62162162162162
scalar RSUExampleScenario.node[51].veinsmobility 	startTime 	123
scalar RSUExampleScenario.node[51].veinsmobility 	totalTime 	327
scalar RSUExampleScenario.node[51].veinsmobility 	stopTime 	450
scalar RSUExampleScenario.node[51].veinsmobility 	minSpeed 	0
scalar RSUExampleScenario.node[51].veinsmobility 	maxSpeed 	13.99984523535
scalar RSUExampleScenario.node[51].veinsmobility 	totalDistance 	1393.5723230121
scalar RSUExampleScenario.node[51].veinsmobility 	totalCO2Emission 	524.90635210845
scalar RSUExampleScenario.node[52].appl 	meanClusterNodes 	0
scalar RSUExampleScenario.node[52].appl 	meanClusterHeadUtility 	0
scalar RSUExampleScenario.node[52].appl 	NumberofCH 	0
scalar RSUExampleScenario.node[52].appl 	NumberofON 	0.43243243243243
scalar RSUExampleScenario.node[52].appl 	NumberofFN 	0.56756756756757
scalar RSUExampleScenario.node[52].veinsmobility 	startTime 	125.4
scalar RSUExampleScenario.node[52].veinsmobility 	totalTime 	324.6
scalar RSUExampleScenario.node[52].veinsmobility 	stopTime 	450
scalar RSUExampleScenario.node[52].veinsmobility 	minSpeed 	0
scalar RSUExampleScenario.node[52].veinsmobility 	maxSpeed 	13.999948638985
scalar RSUExampleScenario.node[52].veinsmobility 	totalDistance 	1359.7519664442
scalar RSUExampleScenario.node[52].veinsmobility 	totalCO2Emission 	518.49247987493
scalar RSUExampleScenario.node[53].appl 	meanClusterNodes 	10.5
scalar RSUExampleScenario.node[53].appl 	meanClusterHeadUtility 	16.498555960666
scalar RSUExampleScenario.node[53].appl 	NumberofCH 	0.054054054054054
scalar RSUExampleScenario.node[53].appl 	NumberofON 	0.24324324324324
scalar RSUExampleScenario.node[53].appl 	NumberofFN 	0.7027027027027
scalar RSUExampleScenario.node[53].veinsmobility 	startTime 	127.8
scalar RSUExampleScenario.node[53].veinsmobility 	totalTime 	322.2
scalar RSUExampleScenario.node[53].veinsmobility 	stopTime 	450
scalar RSUExampleScenario.node[53].veinsmobility 	minSpeed 	0
scalar RSUExampleScenario.node[53].veinsmobility 	maxSpeed 	13.999918443644
scalar RSUExampleScenario.node[53].veinsmobility 	totalDistance 	1324.6008392527
scalar RSUExampleScenario.node[53].veinsmobility 	totalCO2Emission 	511.69372313315
scalar RSUExampleScenario.node[54].appl 	meanClusterNodes 	0
scalar RSUExampleScenario.node[54].appl 	meanClusterHeadUtility 	0
scalar RSUExampleScenario.node[54].appl 	NumberofCH 	0
scalar RSUExampleScenario.node[54].appl 	NumberofON 	0.37837837837838
scalar RSUExampleScenario.node[54].appl 	NumberofFN 	0.62162162162162
scalar RSUExampleScenario.node[54].veinsmobility 	startTime 	130.2
scalar RSUExampleScenario.node[54].veinsmobility 	totalTime 	319.8
scalar RSUExampleScenario.node[54].veinsmobility 	stopTime 	450
scalar RSUExampleScenario.node[54].veinsmobility 	minSpeed 	0
scalar RSUExampleScenario.node[54].veinsmobility 	maxSpeed 	13.99983569588
scalar RSUExampleScenario.node[54].veinsmobility 	totalDistance 	1291.8889062925
scalar RSUExampleScenario.node[54].veinsmobility 	totalCO2Emission 	507.02973823914
scalar RSUExampleScenario.node[55].appl 	meanClusterNodes 	0
scalar RSUExampleScenario.node[55].appl 	meanClusterHeadUtility 	0
scalar RSUExampleScenario.node[55].appl 	NumberofCH 	0
scalar RSUExampleScenario.node[55].appl 	NumberofON 	0.40540540540541
scalar RSUExampleScenario.node[55].appl 	NumberofFN 	0.59459459459459
scalar RSUExampleScenario.node[55].veinsmobility 	startTime 	132.6
scalar RSUExampleScenario.node[55].veinsmobility 	totalTime 	317.4
scalar RSUExampleScenario.node[55].veinsmobility 	stopTime 	450
scalar RSUExampleScenario.node[55].veinsmobility 	minSpeed 	0
scalar RSUExampleScenario.node[55].veinsmobility 	maxSpeed 	13.999998799753
scalar RSUExampleScenario.node[55].veinsmobility 	totalDistance 	1257.3952288046
scalar RSUExampleScenario.node[55].veinsmobility 	totalCO2Emission 	501.88038973077
scalar RSUExampleScenario.node[56].appl 	meanClusterNodes 	4.5
scalar RSUExampleScenario.node[56].appl 	meanClusterHeadUtility 	17.093366112166
scalar RSUExampleScenario.node[56].appl 	NumberofCH 	0.054054054054054
scalar RSUExampleScenario.node[56].appl 	NumberofON 	0.51351351351351
scalar RSUExampleScenario.node[56].appl 	NumberofFN 	0.43243243243243
scalar RSUExampleScenario.node[56].veinsmobility 	startTime 	135
scalar RSUExampleScenario.node[56].veinsmobility 	totalTime 	315
scalar RSUExampleScenario.node[56].veinsmobility 	stopTime 	450
scalar RSUExampleScenario.node[56].veinsmobility 	minSpeed 	0
scalar RSUExampleScenario.node[56].veinsmobility 	maxSpeed 	13.999963912875
scalar RSUExampleScenario.node[56].veinsmobility 	totalDistance 	1224.0656896619
scalar RSUExampleScenario.node[56].veinsmobility 	totalCO2Emission 	496.66610512383
scalar RSUExampleScenario.node[57].appl 	meanClusterNodes 	0
scalar RSUExampleScenario.node[57].appl 	meanClusterHeadUtility 	0
scalar RSUExampleScenario.node[57].appl 	NumberofCH 	0
scalar RSUExampleScenario.node[57].appl 	NumberofON 	0.56756756756757
scalar RSUExampleScenario.node[57].appl 	NumberofFN 	0.43243243243243
scalar RSUExampleScenario.node[57].veinsmobility 	startTime 	137.4
scalar RSUExampleScenario.node[57].veinsmobility 	totalTime 	312.6
scalar RSUExampleScenario.node[57].veinsmobility 	stopTime 	450
scalar RSUExampleScenario.node[57].veinsmobility 	minSpeed 	0
scalar RSUExampleScenario.node[57].veinsmobility 	maxSpeed 	13.999541139335
scalar RSUExampleScenario.node[57].veinsmobility 	totalDistance 	1191.7886741858
scalar RSUExampleScenario.node[57].veinsmobility 	totalCO2Emission 	490.03180275478
scalar RSUExampleScenario.node[58].appl 	meanClusterNodes 	9.25
scalar RSUExampleScenario.node[58].appl 	meanClusterHeadUtility 	8.593358327142
scalar RSUExampleScenario.node[58].appl 	NumberofCH 	0.10810810810811
scalar RSUExampleScenario.node[58].appl 	NumberofON 	0.32432432432432
scalar RSUExampleScenario.node[58].appl 	NumberofFN 	0.56756756756757
scalar RSUExampleScenario.node[58].veinsmobility 	startTime 	139.8
scalar RSUExampleScenario.node[58].veinsmobility 	totalTime 	310.2
scalar RSUExampleScenario.node[58].veinsmobility 	stopTime 	450
scalar RSUExampleScenario.node[58].veinsmobility 	minSpeed 	0
scalar RSUExampleScenario.node[58].veinsmobility 	maxSpeed 	13.999307653804
scalar RSUExampleScenario.node[58].veinsmobility 	totalDistance 	1157.16504699
scalar RSUExampleScenario.node[58].veinsmobility 	totalCO2Emission 	484.30361273069
scalar RSUExampleScenario.node[59].appl 	meanClusterNodes 	9.5
scalar RSUExampleScenario.node[59].appl 	meanClusterHeadUtility 	16.426432598984
scalar RSUExampleScenario.node[59].appl 	NumberofCH 	0.054054054054054
scalar RSUExampleScenario.node[59].appl 	NumberofON 	0.43243243243243
scalar RSUExampleScenario.node[59].appl 	NumberofFN 	0.51351351351351
scalar RSUExampleScenario.node[59].veinsmobility 	startTime 	142.2
scalar RSUExampleScenario.node[59].veinsmobility 	totalTime 	307.8
scalar RSUExampleScenario.node[59].veinsmobility 	stopTime 	450
scalar RSUExampleScenario.node[59].veinsmobility 	minSpeed 	0
scalar RSUExampleScenario.node[59].veinsmobility 	maxSpeed 	13.999496392873
scalar RSUExampleScenario.node[59].veinsmobility 	totalDistance 	1124.0787247501
scalar RSUExampleScenario.node[59].veinsmobility 	totalCO2Emission 	478.40186747403
scalar RSUExampleScenario.node[6].appl 	meanClusterNodes 	6
scalar RSUExampleScenario.node[6].appl 	meanClusterHeadUtility 	9.6163648537416
scalar RSUExampleScenario.node[6].appl 	NumberofCH 	0.10810810810811
scalar RSUExampleScenario.node[6].appl 	NumberofON 	0.18918918918919
scalar RSUExampleScenario.node[6].appl 	NumberofFN 	0.7027027027027
scalar RSUExampleScenario.node[6].veinsmobility 	startTime 	14.5
scalar RSUExampleScenario.node[6].veinsmobility 	totalTime 	435.5
scalar RSUExampleScenario.node[6].veinsmobility 	stopTime 	450
scalar RSUExampleScenario.node[6].veinsmobility 	minSpeed 	0
scalar RSUExampleScenario.node[6].veinsmobility 	maxSpeed 	13.999931641
scalar RSUExampleScenario.node[6].veinsmobility 	totalDistance 	2905.6885001299
scalar RSUExampleScenario.node[6].veinsmobility 	totalCO2Emission 	781.59697706138
scalar RSUExampleScenario.node[60].appl 	meanClusterNodes 	4.5
scalar RSUExampleScenario.node[60].appl 	meanClusterHeadUtility 	17.407273367849
scalar RSUExampleScenario.node[60].appl 	NumberofCH 	0.054054054054054
scalar RSUExampleScenario.node[60].appl 	NumberofON 	0.72972972972973
scalar RSUExampleScenario.node[60].appl 	NumberofFN 	0.21621621621622
scalar RSUExampleScenario.node[60].veinsmobility 	startTime 	144.7
scalar RSUExampleScenario.node[60].veinsmobility 	totalTime 	305.3
scalar RSUExampleScenario.node[60].veinsmobility 	stopTime 	450
scalar RSUExampleScenario.node[60].veinsmobility 	minSpeed 	0
scalar RSUExampleScenario.node[60].veinsmobility 	maxSpeed 	13.999672330522
scalar RSUExampleScenario.node[60].veinsmobility 	totalDistance 	1089.43721276
scalar RSUExampleScenario.node[60].veinsmobility 	totalCO2Emission 	474.89376544978
scalar RSUExampleScenario.node[61].appl 	meanClusterNodes 	9.5
scalar RSUExampleScenario.node[61].appl 	meanClusterHeadUtility 	18.22690484739
scalar RSUExampleScenario.node[61].appl 	NumberofCH 	0.054054054054054
scalar RSUExampleScenario.node[61].appl 	NumberofON 	0.27027027027027
scalar RSUExampleScenario.node[61].appl 	NumberofFN 	0.67567567567568
scalar RSUExampleScenario.node[61].veinsmobility 	startTime 	147.1
scalar RSUExampleScenario.node[61].veinsmobility 	totalTime 	302.9
scalar RSUExampleScenario.node[61].veinsmobility 	stopTime 	450
scalar RSUExampleScenario.node[61].veinsmobility 	minSpeed 	0
scalar RSUExampleScenario.node[61].veinsmobility 	maxSpeed 	13.999938131999
scalar RSUExampleScenario.node[61].veinsmobility 	totalDistance 	1057.4226236101
scalar RSUExampleScenario.node[61].veinsmobility 	totalCO2Emission 	468.17623820563
scalar RSUExampleScenario.node[62].appl 	meanClusterNodes 	0
scalar RSUExampleScenario.node[62].appl 	meanClusterHeadUtility 	0
scalar RSUExampleScenario.node[62].appl 	NumberofCH 	0
scalar RSUExampleScenario.node[62].appl 	NumberofON 	0.27027027027027
scalar RSUExampleScenario.node[62].appl 	NumberofFN 	0.72972972972973
scalar RSUExampleScenario.node[62].veinsmobility 	startTime 	149.5
scalar RSUExampleScenario.node[62].veinsmobility 	totalTime 	300.5
scalar RSUExampleScenario.node[62].veinsmobility 	stopTime 	450
scalar RSUExampleScenario.node[62].veinsmobility 	minSpeed 	0
scalar RSUExampleScenario.node[62].veinsmobility 	maxSpeed 	13.999964341864
scalar RSUExampleScenario.node[62].veinsmobility 	totalDistance 	1024.1482273984
scalar RSUExampleScenario.node[62].veinsmobility 	totalCO2Emission 	463.38689190089
scalar RSUExampleScenario.node[63].appl 	meanClusterNodes 	0
scalar RSUExampleScenario.node[63].appl 	meanClusterHeadUtility 	0
scalar RSUExampleScenario.node[63].appl 	NumberofCH 	0
scalar RSUExampleScenario.node[63].appl 	NumberofON 	0.40540540540541
scalar RSUExampleScenario.node[63].appl 	NumberofFN 	0.59459459459459
scalar RSUExampleScenario.node[63].veinsmobility 	startTime 	151.9
scalar RSUExampleScenario.node[63].veinsmobility 	totalTime 	298.1
scalar RSUExampleScenario.node[63].veinsmobility 	stopTime 	450
scalar RSUExampleScenario.node[63].veinsmobility 	minSpeed 	0
scalar RSUExampleScenario.node[63].veinsmobility 	maxSpeed 	13.99939783938
scalar RSUExampleScenario.node[63].veinsmobility 	totalDistance 	984.44626232657
scalar RSUExampleScenario.node[63].veinsmobility 	totalCO2Emission 	450.73176647231
scalar RSUExampleScenario.node[64].appl 	meanClusterNodes 	5
scalar RSUExampleScenario.node[64].appl 	meanClusterHeadUtility 	17.80728840599
scalar RSUExampleScenario.node[64].appl 	NumberofCH 	0.054054054054054
scalar RSUExampleScenario.node[64].appl 	NumberofON 	0.62162162162162
scalar RSUExampleScenario.node[64].appl 	NumberofFN 	0.32432432432432
scalar RSUExampleScenario.node[64].veinsmobility 	startTime 	154.3
scalar RSUExampleScenario.node[64].veinsmobility 	totalTime 	295.7
scalar RSUExampleScenario.node[64].veinsmobility 	stopTime 	450
scalar RSUExampleScenario.node[64].veinsmobility 	minSpeed 	0
scalar RSUExampleScenario.node[64].veinsmobility 	maxSpeed 	13.999194659425
scalar RSUExampleScenario.node[64].veinsmobility 	totalDistance 	953.55520897592
scalar RSUExampleScenario.node[64].veinsmobility 	totalCO2Emission 	436.34821062707
scalar RSUExampleScenario.node[65].appl 	meanClusterNodes 	10.25
scalar RSUExampleScenario.node[65].appl 	meanClusterHeadUtility 	8.9271874739768
scalar RSUExampleScenario.node[65].appl 	NumberofCH 	0.10810810810811
scalar RSUExampleScenario.node[65].appl 	NumberofON 	0.13513513513514
scalar RSUExampleScenario.node[65].appl 	NumberofFN 	0.75675675675676
scalar RSUExampleScenario.node[65].veinsmobility 	startTime 	156.7
scalar RSUExampleScenario.node[65].veinsmobility 	totalTime 	293.3
scalar RSUExampleScenario.node[65].veinsmobility 	stopTime 	450
scalar RSUExampleScenario.node[65].veinsmobility 	minSpeed 	0
scalar RSUExampleScenario.node[65].veinsmobility 	maxSpeed 	13.999937477212
scalar RSUExampleScenario.node[65].veinsmobility 	totalDistance 	940.28978332868
scalar RSUExampleScenario.node[65].veinsmobility 	totalCO2Emission 	429.65264878588
scalar RSUExampleScenario.node[66].appl 	meanClusterNodes 	0
scalar RSUExampleScenario.node[66].appl 	meanClusterHeadUtility 	0
scalar RSUExampleScenario.node[66].appl 	NumberofCH 	0
scalar RSUExampleScenario.node[66].appl 	NumberofON 	0.40540540540541
scalar RSUExampleScenario.node[66].appl 	NumberofFN 	0.59459459459459
scalar RSUExampleScenario.node[66].veinsmobility 	startTime 	159.1
scalar RSUExampleScenario.node[66].veinsmobility 	totalTime 	290.9
scalar RSUExampleScenario.node[66].veinsmobility 	stopTime 	450
scalar RSUExampleScenario.node[66].veinsmobility 	minSpeed 	0
scalar RSUExampleScenario.node[66].veinsmobility 	maxSpeed 	13.999972998658
scalar RSUExampleScenario.node[66].veinsmobility 	totalDistance 	928.04698028518
scalar RSUExampleScenario.node[66].veinsmobility 	totalCO2Emission 	421.65812385829
scalar RSUExampleScenario.node[67].appl 	meanClusterNodes 	0
scalar RSUExampleScenario.node[67].appl 	meanClusterHeadUtility 	0
scalar RSUExampleScenario.node[67].appl 	NumberofCH 	0
scalar RSUExampleScenario.node[67].appl 	NumberofON 	0.40540540540541
scalar RSUExampleScenario.node[67].appl 	NumberofFN 	0.59459459459459
scalar RSUExampleScenario.node[67].veinsmobility 	startTime 	161.5
scalar RSUExampleScenario.node[67].veinsmobility 	totalTime 	288.5
scalar RSUExampleScenario.node[67].veinsmobility 	stopTime 	450
scalar RSUExampleScenario.node[67].veinsmobility 	minSpeed 	0
scalar RSUExampleScenario.node[67].veinsmobility 	maxSpeed 	13.999775725137
scalar RSUExampleScenario.node[67].veinsmobility 	totalDistance 	912.90004703769
scalar RSUExampleScenario.node[67].veinsmobility 	totalCO2Emission 	421.75876109069
scalar RSUExampleScenario.node[68].appl 	meanClusterNodes 	5.25
scalar RSUExampleScenario.node[68].appl 	meanClusterHeadUtility 	9.1228793484591
scalar RSUExampleScenario.node[68].appl 	NumberofCH 	0.10810810810811
scalar RSUExampleScenario.node[68].appl 	NumberofON 	0.62162162162162
scalar RSUExampleScenario.node[68].appl 	NumberofFN 	0.27027027027027
scalar RSUExampleScenario.node[68].veinsmobility 	startTime 	163.9
scalar RSUExampleScenario.node[68].veinsmobility 	totalTime 	286.1
scalar RSUExampleScenario.node[68].veinsmobility 	stopTime 	450
scalar RSUExampleScenario.node[68].veinsmobility 	minSpeed 	0
scalar RSUExampleScenario.node[68].veinsmobility 	maxSpeed 	13.999987542485
scalar RSUExampleScenario.node[68].veinsmobility 	totalDistance 	892.11243632319
scalar RSUExampleScenario.node[68].veinsmobility 	totalCO2Emission 	416.42599677247
scalar RSUExampleScenario.node[69].appl 	meanClusterNodes 	3.5
scalar RSUExampleScenario.node[69].appl 	meanClusterHeadUtility 	18.515695330683
scalar RSUExampleScenario.node[69].appl 	NumberofCH 	0.054054054054054
scalar RSUExampleScenario.node[69].appl 	NumberofON 	0.45945945945946
scalar RSUExampleScenario.node[69].appl 	NumberofFN 	0.48648648648649
scalar RSUExampleScenario.node[69].veinsmobility 	startTime 	166.3
scalar RSUExampleScenario.node[69].veinsmobility 	totalTime 	283.7
scalar RSUExampleScenario.node[69].veinsmobility 	stopTime 	450
scalar RSUExampleScenario.node[69].veinsmobility 	minSpeed 	0
scalar RSUExampleScenario.node[69].veinsmobility 	maxSpeed 	13.999423089083
scalar RSUExampleScenario.node[69].veinsmobility 	totalDistance 	859.31290046229
scalar RSUExampleScenario.node[69].veinsmobility 	totalCO2Emission 	412.05659528447
scalar RSUExampleScenario.node[7].appl 	meanClusterNodes 	10
scalar RSUExampleScenario.node[7].appl 	meanClusterHeadUtility 	18.069668132036
scalar RSUExampleScenario.node[7].appl 	NumberofCH 	0.054054054054054
scalar RSUExampleScenario.node[7].appl 	NumberofON 	0.32432432432432
scalar RSUExampleScenario.node[7].appl 	NumberofFN 	0.62162162162162
scalar RSUExampleScenario.node[7].veinsmobility 	startTime 	16.9
scalar RSUExampleScenario.node[7].veinsmobility 	totalTime 	433.1
scalar RSUExampleScenario.node[7].veinsmobility 	stopTime 	450
scalar RSUExampleScenario.node[7].veinsmobility 	minSpeed 	0
scalar RSUExampleScenario.node[7].veinsmobility 	maxSpeed 	13.999989933171
scalar RSUExampleScenario.node[7].veinsmobility 	totalDistance 	2885.3551684853
scalar RSUExampleScenario.node[7].veinsmobility 	totalCO2Emission 	775.99120962982
scalar RSUExampleScenario.node[70].appl 	meanClusterNodes 	2
scalar RSUExampleScenario.node[70].appl 	meanClusterHeadUtility 	16.061018030964
scalar RSUExampleScenario.node[70].appl 	NumberofCH 	0.054054054054054
scalar RSUExampleScenario.node[70].appl 	NumberofON 	0.32432432432432
scalar RSUExampleScenario.node[70].appl 	NumberofFN 	0.62162162162162
scalar RSUExampleScenario.node[70].veinsmobility 	startTime 	168.8
scalar RSUExampleScenario.node[70].veinsmobility 	totalTime 	281.2
scalar RSUExampleScenario.node[70].veinsmobility 	stopTime 	450
scalar RSUExampleScenario.node[70].veinsmobility 	minSpeed 	0
scalar RSUExampleScenario.node[70].veinsmobility 	maxSpeed 	13.999993796668
scalar RSUExampleScenario.node[70].veinsmobility 	totalDistance 	827.12020153005
scalar RSUExampleScenario.node[70].veinsmobility 	totalCO2Emission 	407.67805641968
scalar RSUExampleScenario.node[71].appl 	meanClusterNodes 	0
scalar RSUExampleScenario.node[71].appl 	meanClusterHeadUtility 	0
scalar RSUExampleScenario.node[71].appl 	NumberofCH 	0
scalar RSUExampleScenario.node[71].appl 	NumberofON 	0.51351351351351
scalar RSUExampleScenario.node[71].appl 	NumberofFN 	0.48648648648649
scalar RSUExampleScenario.node[71].veinsmobility 	startTime 	171.2
scalar RSUExampleScenario.node[71].veinsmobility 	totalTime 	278.8
scalar RSUExampleScenario.node[71].veinsmobility 	stopTime 	450
scalar RSUExampleScenario.node[71].veinsmobility 	minSpeed 	0
scalar RSUExampleScenario.node[71].veinsmobility 	maxSpeed 	13.999728857041
scalar RSUExampleScenario.node[71].veinsmobility 	totalDistance 	792.78577079781
scalar RSUExampleScenario.node[71].veinsmobility 	totalCO2Emission 	402.69152166408
scalar RSUExampleScenario.node[72].appl 	meanClusterNodes 	6.5
scalar RSUExampleScenario.node[72].appl 	meanClusterHeadUtility 	17.057230558056
scalar RSUExampleScenario.node[72].appl 	NumberofCH 	0.054054054054054
scalar RSUExampleScenario.node[72].appl 	NumberofON 	0.56756756756757
scalar RSUExampleScenario.node[72].appl 	NumberofFN 	0.37837837837838
scalar RSUExampleScenario.node[72].veinsmobility 	startTime 	173.6
scalar RSUExampleScenario.node[72].veinsmobility 	totalTime 	276.4
scalar RSUExampleScenario.node[72].veinsmobility 	stopTime 	450
scalar RSUExampleScenario.node[72].veinsmobility 	minSpeed 	0
scalar RSUExampleScenario.node[72].veinsmobility 	maxSpeed 	13.999973274611
scalar RSUExampleScenario.node[72].veinsmobility 	totalDistance 	760.09634710648
scalar RSUExampleScenario.node[72].veinsmobility 	totalCO2Emission 	396.73844960889
scalar RSUExampleScenario.node[73].appl 	meanClusterNodes 	1
scalar RSUExampleScenario.node[73].appl 	meanClusterHeadUtility 	16.09366525873
scalar RSUExampleScenario.node[73].appl 	NumberofCH 	0.054054054054054
scalar RSUExampleScenario.node[73].appl 	NumberofON 	0.54054054054054
scalar RSUExampleScenario.node[73].appl 	NumberofFN 	0.40540540540541
scalar RSUExampleScenario.node[73].veinsmobility 	startTime 	176
scalar RSUExampleScenario.node[73].veinsmobility 	totalTime 	274
scalar RSUExampleScenario.node[73].veinsmobility 	stopTime 	450
scalar RSUExampleScenario.node[73].veinsmobility 	minSpeed 	0
scalar RSUExampleScenario.node[73].veinsmobility 	maxSpeed 	13.999867835848
scalar RSUExampleScenario.node[73].veinsmobility 	totalDistance 	724.98761765819
scalar RSUExampleScenario.node[73].veinsmobility 	totalCO2Emission 	389.01440824857
scalar RSUExampleScenario.node[74].appl 	meanClusterNodes 	5.5
scalar RSUExampleScenario.node[74].appl 	meanClusterHeadUtility 	8.7923895015074
scalar RSUExampleScenario.node[74].appl 	NumberofCH 	0.10810810810811
scalar RSUExampleScenario.node[74].appl 	NumberofON 	0.48648648648649
scalar RSUExampleScenario.node[74].appl 	NumberofFN 	0.40540540540541
scalar RSUExampleScenario.node[74].veinsmobility 	startTime 	178.4
scalar RSUExampleScenario.node[74].veinsmobility 	totalTime 	271.6
scalar RSUExampleScenario.node[74].veinsmobility 	stopTime 	450
scalar RSUExampleScenario.node[74].veinsmobility 	minSpeed 	0
scalar RSUExampleScenario.node[74].veinsmobility 	maxSpeed 	13.999579234861
scalar RSUExampleScenario.node[74].veinsmobility 	totalDistance 	691.53851608547
scalar RSUExampleScenario.node[74].veinsmobility 	totalCO2Emission 	385.30866538374
scalar RSUExampleScenario.node[75].appl 	meanClusterNodes 	10
scalar RSUExampleScenario.node[75].appl 	meanClusterHeadUtility 	18.026128206276
scalar RSUExampleScenario.node[75].appl 	NumberofCH 	0.054054054054054
scalar RSUExampleScenario.node[75].appl 	NumberofON 	0.32432432432432
scalar RSUExampleScenario.node[75].appl 	NumberofFN 	0.62162162162162
scalar RSUExampleScenario.node[75].veinsmobility 	startTime 	180.8
scalar RSUExampleScenario.node[75].veinsmobility 	totalTime 	269.2
scalar RSUExampleScenario.node[75].veinsmobility 	stopTime 	450
scalar RSUExampleScenario.node[75].veinsmobility 	minSpeed 	0
scalar RSUExampleScenario.node[75].veinsmobility 	maxSpeed 	13.999113295272
scalar RSUExampleScenario.node[75].veinsmobility 	totalDistance 	657.76096472066
scalar RSUExampleScenario.node[75].veinsmobility 	totalCO2Emission 	380.6266528457
scalar RSUExampleScenario.node[76].appl 	meanClusterNodes 	0
scalar RSUExampleScenario.node[76].appl 	meanClusterHeadUtility 	0
scalar RSUExampleScenario.node[76].appl 	NumberofCH 	0
scalar RSUExampleScenario.node[76].appl 	NumberofON 	0.51351351351351
scalar RSUExampleScenario.node[76].appl 	NumberofFN 	0.48648648648649
scalar RSUExampleScenario.node[76].veinsmobility 	startTime 	183.2
scalar RSUExampleScenario.node[76].veinsmobility 	totalTime 	266.8
scalar RSUExampleScenario.node[76].veinsmobility 	stopTime 	450
scalar RSUExampleScenario.node[76].veinsmobility 	minSpeed 	0
scalar RSUExampleScenario.node[76].veinsmobility 	maxSpeed 	13.999291015009
scalar RSUExampleScenario.node[76].veinsmobility 	totalDistance 	624.04519789397
scalar RSUExampleScenario.node[76].veinsmobility 	totalCO2Emission 	372.53765307623
scalar RSUExampleScenario.node[77].appl 	meanClusterNodes 	8.5
scalar RSUExampleScenario.node[77].appl 	meanClusterHeadUtility 	16.759142827787
scalar RSUExampleScenario.node[77].appl 	NumberofCH 	0.054054054054054
scalar RSUExampleScenario.node[77].appl 	NumberofON 	0.35135135135135
scalar RSUExampleScenario.node[77].appl 	NumberofFN 	0.59459459459459
scalar RSUExampleScenario.node[77].veinsmobility 	startTime 	185.6
scalar RSUExampleScenario.node[77].veinsmobility 	totalTime 	264.4
scalar RSUExampleScenario.node[77].veinsmobility 	stopTime 	450
scalar RSUExampleScenario.node[77].veinsmobility 	minSpeed 	0
scalar RSUExampleScenario.node[77].veinsmobility 	maxSpeed 	13.999959869103
scalar RSUExampleScenario.node[77].veinsmobility 	totalDistance 	590.91561325166
scalar RSUExampleScenario.node[77].veinsmobility 	totalCO2Emission 	369.59595309724
scalar RSUExampleScenario.node[78].appl 	meanClusterNodes 	5
scalar RSUExampleScenario.node[78].appl 	meanClusterHeadUtility 	17.315940946218
scalar RSUExampleScenario.node[78].appl 	NumberofCH 	0.054054054054054
scalar RSUExampleScenario.node[78].appl 	NumberofON 	0.37837837837838
scalar RSUExampleScenario.node[78].appl 	NumberofFN 	0.56756756756757
scalar RSUExampleScenario.node[78].veinsmobility 	startTime 	188
scalar RSUExampleScenario.node[78].veinsmobility 	totalTime 	262
scalar RSUExampleScenario.node[78].veinsmobility 	stopTime 	450
scalar RSUExampleScenario.node[78].veinsmobility 	minSpeed 	0
scalar RSUExampleScenario.node[78].veinsmobility 	maxSpeed 	13.99940952827
scalar RSUExampleScenario.node[78].veinsmobility 	totalDistance 	558.01271477521
scalar RSUExampleScenario.node[78].veinsmobility 	totalCO2Emission 	362.47834106789
scalar RSUExampleScenario.node[79].appl 	meanClusterNodes 	6.25
scalar RSUExampleScenario.node[79].appl 	meanClusterHeadUtility 	9.3131852269082
scalar RSUExampleScenario.node[79].appl 	NumberofCH 	0.10810810810811
scalar RSUExampleScenario.node[79].appl 	NumberofON 	0.32432432432432
scalar RSUExampleScenario.node[79].appl 	NumberofFN 	0.56756756756757
scalar RSUExampleScenario.node[79].veinsmobility 	startTime 	190.4
scalar RSUExampleScenario.node[79].veinsmobility 	totalTime 	259.6
scalar RSUExampleScenario.node[79].veinsmobility 	stopTime 	450
scalar RSUExampleScenario.node[79].veinsmobility 	minSpeed 	0
scalar RSUExampleScenario.node[79].veinsmobility 	maxSpeed 	13.999196428347
scalar RSUExampleScenario.node[79].veinsmobility 	totalDistance 	524.60515822218
scalar RSUExampleScenario.node[79].veinsmobility 	totalCO2Emission 	357.27579543679
scalar RSUExampleScenario.node[8].appl 	meanClusterNodes 	7
scalar RSUExampleScenario.node[8].appl 	meanClusterHeadUtility 	9.2301676205405
scalar RSUExampleScenario.node[8].appl 	NumberofCH 	0.10810810810811
scalar RSUExampleScenario.node[8].appl 	NumberofON 	0.27027027027027
scalar RSUExampleScenario.node[8].appl 	NumberofFN 	0.62162162162162
scalar RSUExampleScenario.node[8].veinsmobility 	startTime 	19.3
scalar RSUExampleScenario.node[8].veinsmobility 	totalTime 	430.7
scalar RSUExampleScenario.node[8].veinsmobility 	stopTime 	450
scalar RSUExampleScenario.node[8].veinsmobility 	minSpeed 	0
scalar RSUExampleScenario.node[8].veinsmobility 	maxSpeed 	13.999983300306
scalar RSUExampleScenario.node[8].veinsmobility 	totalDistance 	2862.0980489709
scalar RSUExampleScenario.node[8].veinsmobility 	totalCO2Emission 	772.00618516796
scalar RSUExampleScenario.node[80].appl 	meanClusterNodes 	3.5
scalar RSUExampleScenario.node[80].appl 	meanClusterHeadUtility 	9.2033875983876
scalar RSUExampleScenario.node[80].appl 	NumberofCH 	0.10810810810811
scalar RSUExampleScenario.node[80].appl 	NumberofON 	0.48648648648649
scalar RSUExampleScenario.node[80].appl 	NumberofFN 	0.40540540540541
scalar RSUExampleScenario.node[80].veinsmobility 	startTime 	192.9
scalar RSUExampleScenario.node[80].veinsmobility 	totalTime 	257.1
scalar RSUExampleScenario.node[80].veinsmobility 	stopTime 	450
scalar RSUExampleScenario.node[80].veinsmobility 	minSpeed 	0
scalar RSUExampleScenario.node[80].veinsmobility 	maxSpeed 	13.999546213369
scalar RSUExampleScenario.node[80].veinsmobility 	totalDistance 	490.68863716764
scalar RSUExampleScenario.node[80].veinsmobility 	totalCO2Emission 	351.18093264206
scalar RSUExampleScenario.node[81].appl 	meanClusterNodes 	11.5
scalar RSUExampleScenario.node[81].appl 	meanClusterHeadUtility 	16.869087411419
scalar RSUExampleScenario.node[81].appl 	NumberofCH 	0.054054054054054
scalar RSUExampleScenario.node[81].appl 	NumberofON 	0.35135135135135
scalar RSUExampleScenario.node[81].appl 	NumberofFN 	0.59459459459459
scalar RSUExampleScenario.node[81].veinsmobility 	startTime 	195.3
scalar RSUExampleScenario.node[81].veinsmobility 	totalTime 	254.7
scalar RSUExampleScenario.node[81].veinsmobility 	stopTime 	450
scalar RSUExampleScenario.node[81].veinsmobility 	minSpeed 	0
scalar RSUExampleScenario.node[81].veinsmobility 	maxSpeed 	13.997281293203
scalar RSUExampleScenario.node[81].veinsmobility 	totalDistance 	456.21650311483
scalar RSUExampleScenario.node[81].veinsmobility 	totalCO2Emission 	345.42005276736
scalar RSUExampleScenario.node[82].appl 	meanClusterNodes 	5
scalar RSUExampleScenario.node[82].appl 	meanClusterHeadUtility 	37.100254089916
scalar RSUExampleScenario.node[82].appl 	NumberofCH 	0.027027027027027
scalar RSUExampleScenario.node[82].appl 	NumberofON 	0.35135135135135
scalar RSUExampleScenario.node[82].appl 	NumberofFN 	0.62162162162162
scalar RSUExampleScenario.node[82].veinsmobility 	startTime 	197.7
scalar RSUExampleScenario.node[82].veinsmobility 	totalTime 	252.3
scalar RSUExampleScenario.node[82].veinsmobility 	stopTime 	450
scalar RSUExampleScenario.node[82].veinsmobility 	minSpeed 	0
scalar RSUExampleScenario.node[82].veinsmobility 	maxSpeed 	13.99645397326
scalar RSUExampleScenario.node[82].veinsmobility 	totalDistance 	423.28354341913
scalar RSUExampleScenario.node[82].veinsmobility 	totalCO2Emission 	340.25790661317
scalar RSUExampleScenario.node[83].appl 	meanClusterNodes 	5
scalar RSUExampleScenario.node[83].appl 	meanClusterHeadUtility 	17.811882585261
scalar RSUExampleScenario.node[83].appl 	NumberofCH 	0.054054054054054
scalar RSUExampleScenario.node[83].appl 	NumberofON 	0.64864864864865
scalar RSUExampleScenario.node[83].appl 	NumberofFN 	0.2972972972973
scalar RSUExampleScenario.node[83].veinsmobility 	startTime 	200.1
scalar RSUExampleScenario.node[83].veinsmobility 	totalTime 	249.9
scalar RSUExampleScenario.node[83].veinsmobility 	stopTime 	450
scalar RSUExampleScenario.node[83].veinsmobility 	minSpeed 	0
scalar RSUExampleScenario.node[83].veinsmobility 	maxSpeed 	13.997310205726
scalar RSUExampleScenario.node[83].veinsmobility 	totalDistance 	389.71597429038
scalar RSUExampleScenario.node[83].veinsmobility 	totalCO2Emission 	332.95497830649
scalar RSUExampleScenario.node[84].appl 	meanClusterNodes 	7.5
scalar RSUExampleScenario.node[84].appl 	meanClusterHeadUtility 	8.9481077696288
scalar RSUExampleScenario.node[84].appl 	NumberofCH 	0.10810810810811
scalar RSUExampleScenario.node[84].appl 	NumberofON 	0.27027027027027
scalar RSUExampleScenario.node[84].appl 	NumberofFN 	0.62162162162162
scalar RSUExampleScenario.node[84].veinsmobility 	startTime 	202.5
scalar RSUExampleScenario.node[84].veinsmobility 	totalTime 	247.5
scalar RSUExampleScenario.node[84].veinsmobility 	stopTime 	450
scalar RSUExampleScenario.node[84].veinsmobility 	minSpeed 	0
scalar RSUExampleScenario.node[84].veinsmobility 	maxSpeed 	13.99789039179
scalar RSUExampleScenario.node[84].veinsmobility 	totalDistance 	354.25870147634
scalar RSUExampleScenario.node[84].veinsmobility 	totalCO2Emission 	327.43351505756
scalar RSUExampleScenario.node[85].appl 	meanClusterNodes 	4
scalar RSUExampleScenario.node[85].appl 	meanClusterHeadUtility 	16.500692928209
scalar RSUExampleScenario.node[85].appl 	NumberofCH 	0.054054054054054
scalar RSUExampleScenario.node[85].appl 	NumberofON 	0.56756756756757
scalar RSUExampleScenario.node[85].appl 	NumberofFN 	0.37837837837838
scalar RSUExampleScenario.node[85].veinsmobility 	startTime 	204.9
scalar RSUExampleScenario.node[85].veinsmobility 	totalTime 	245.1
scalar RSUExampleScenario.node[85].veinsmobility 	stopTime 	450
scalar RSUExampleScenario.node[85].veinsmobility 	minSpeed 	0
scalar RSUExampleScenario.node[85].veinsmobility 	maxSpeed 	13.991022978567
scalar RSUExampleScenario.node[85].veinsmobility 	totalDistance 	322.19533472401
scalar RSUExampleScenario.node[85].veinsmobility 	totalCO2Emission 	322.72750266926
scalar RSUExampleScenario.node[86].appl 	meanClusterNodes 	0
scalar RSUExampleScenario.node[86].appl 	meanClusterHeadUtility 	0
scalar RSUExampleScenario.node[86].appl 	NumberofCH 	0
scalar RSUExampleScenario.node[86].appl 	NumberofON 	0.35135135135135
scalar RSUExampleScenario.node[86].appl 	NumberofFN 	0.64864864864865
scalar RSUExampleScenario.node[86].veinsmobility 	startTime 	207.3
scalar RSUExampleScenario.node[86].veinsmobility 	totalTime 	242.7
scalar RSUExampleScenario.node[86].veinsmobility 	stopTime 	450
scalar RSUExampleScenario.node[86].veinsmobility 	minSpeed 	0
scalar RSUExampleScenario.node[86].veinsmobility 	maxSpeed 	13.892140700652
scalar RSUExampleScenario.node[86].veinsmobility 	totalDistance 	289.19463393146
scalar RSUExampleScenario.node[86].veinsmobility 	totalCO2Emission 	316.91447021249
scalar RSUExampleScenario.node[87].appl 	meanClusterNodes 	4
scalar RSUExampleScenario.node[87].appl 	meanClusterHeadUtility 	19.404234950283
scalar RSUExampleScenario.node[87].appl 	NumberofCH 	0.054054054054054
scalar RSUExampleScenario.node[87].appl 	NumberofON 	0.51351351351351
scalar RSUExampleScenario.node[87].appl 	NumberofFN 	0.43243243243243
scalar RSUExampleScenario.node[87].veinsmobility 	startTime 	209.7
scalar RSUExampleScenario.node[87].veinsmobility 	totalTime 	240.3
scalar RSUExampleScenario.node[87].veinsmobility 	stopTime 	450
scalar RSUExampleScenario.node[87].veinsmobility 	minSpeed 	0
scalar RSUExampleScenario.node[87].veinsmobility 	maxSpeed 	13.832133579803
scalar RSUExampleScenario.node[87].veinsmobility 	totalDistance 	248.98547531941
scalar RSUExampleScenario.node[87].veinsmobility 	totalCO2Emission 	298.22091016358
scalar RSUExampleScenario.node[88].appl 	meanClusterNodes 	3
scalar RSUExampleScenario.node[88].appl 	meanClusterHeadUtility 	18.614093855263
scalar RSUExampleScenario.node[88].appl 	NumberofCH 	0.054054054054054
scalar RSUExampleScenario.node[88].appl 	NumberofON 	0.45945945945946
scalar RSUExampleScenario.node[88].appl 	NumberofFN 	0.48648648648649
scalar RSUExampleScenario.node[88].veinsmobility 	startTime 	212.1
scalar RSUExampleScenario.node[88].veinsmobility 	totalTime 	237.9
scalar RSUExampleScenario.node[88].veinsmobility 	stopTime 	450
scalar RSUExampleScenario.node[88].veinsmobility 	minSpeed 	0
scalar RSUExampleScenario.node[88].veinsmobility 	maxSpeed 	13.837680945475
scalar RSUExampleScenario.node[88].veinsmobility 	totalDistance 	226.10863576143
scalar RSUExampleScenario.node[88].veinsmobility 	totalCO2Emission 	286.42782964167
scalar RSUExampleScenario.node[89].appl 	meanClusterNodes 	2
scalar RSUExampleScenario.node[89].appl 	meanClusterHeadUtility 	18.54311728893
scalar RSUExampleScenario.node[89].appl 	NumberofCH 	0.054054054054054
scalar RSUExampleScenario.node[89].appl 	NumberofON 	0.56756756756757
scalar RSUExampleScenario.node[89].appl 	NumberofFN 	0.37837837837838
scalar RSUExampleScenario.node[89].veinsmobility 	startTime 	214.5
scalar RSUExampleScenario.node[89].veinsmobility 	totalTime 	235.5
scalar RSUExampleScenario.node[89].veinsmobility 	stopTime 	450
scalar RSUExampleScenario.node[89].veinsmobility 	minSpeed 	0
scalar RSUExampleScenario.node[89].veinsmobility 	maxSpeed 	13.864810657667
scalar RSUExampleScenario.node[89].veinsmobility 	totalDistance 	215.43220295515
scalar RSUExampleScenario.node[89].veinsmobility 	totalCO2Emission 	282.30220779265
scalar RSUExampleScenario.node[9].appl 	meanClusterNodes 	2
scalar RSUExampleScenario.node[9].appl 	meanClusterHeadUtility 	18.732292810925
scalar RSUExampleScenario.node[9].appl 	NumberofCH 	0.054054054054054
scalar RSUExampleScenario.node[9].appl 	NumberofON 	0.51351351351351
scalar RSUExampleScenario.node[9].appl 	NumberofFN 	0.43243243243243
scalar RSUExampleScenario.node[9].veinsmobility 	startTime 	21.7
scalar RSUExampleScenario.node[9].veinsmobility 	totalTime 	428.3
scalar RSUExampleScenario.node[9].veinsmobility 	stopTime 	450
scalar RSUExampleScenario.node[9].veinsmobility 	minSpeed 	0
scalar RSUExampleScenario.node[9].veinsmobility 	maxSpeed 	13.999937800444
scalar RSUExampleScenario.node[9].veinsmobility 	totalDistance 	2824.5066213205
scalar RSUExampleScenario.node[9].veinsmobility 	totalCO2Emission 	767.33941326279
scalar RSUExampleScenario.node[90].appl 	meanClusterNodes 	5
scalar RSUExampleScenario.node[90].appl 	meanClusterHeadUtility 	8.184158790605
scalar RSUExampleScenario.node[90].appl 	NumberofCH 	0.10810810810811
scalar RSUExampleScenario.node[90].appl 	NumberofON 	0.56756756756757
scalar RSUExampleScenario.node[90].appl 	NumberofFN 	0.32432432432432
scalar RSUExampleScenario.node[90].veinsmobility 	startTime 	217
scalar RSUExampleScenario.node[90].veinsmobility 	totalTime 	233
scalar RSUExampleScenario.node[90].veinsmobility 	stopTime 	450
scalar RSUExampleScenario.node[90].veinsmobility 	minSpeed 	0
scalar RSUExampleScenario.node[90].veinsmobility 	maxSpeed 	13.871372766879
scalar RSUExampleScenario.node[90].veinsmobility 	totalDistance 	202.07516439254
scalar RSUExampleScenario.node[90].veinsmobility 	totalCO2Emission 	280.07351135793
scalar RSUExampleScenario.node[91].appl 	meanClusterNodes 	7.5
scalar RSUExampleScenario.node[91].appl 	meanClusterHeadUtility 	17.86327937034
scalar RSUExampleScenario.node[91].appl 	NumberofCH 	0.054054054054054
scalar RSUExampleScenario.node[91].appl 	NumberofON 	0.27027027027027
scalar RSUExampleScenario.node[91].appl 	NumberofFN 	0.67567567567568
scalar RSUExampleScenario.node[91].veinsmobility 	startTime 	219.4
scalar RSUExampleScenario.node[91].veinsmobility 	totalTime 	230.6
scalar RSUExampleScenario.node[91].veinsmobility 	stopTime 	450
scalar RSUExampleScenario.node[91].veinsmobility 	minSpeed 	0
scalar RSUExampleScenario.node[91].veinsmobility 	maxSpeed 	13.807026133512
scalar RSUExampleScenario.node[91].veinsmobility 	totalDistance 	185.26842839364
scalar RSUExampleScenario.node[91].veinsmobility 	totalCO2Emission 	278.16272834275
scalar RSUExampleScenario.node[92].appl 	meanClusterNodes 	9.5
scalar RSUExampleScenario.node[92].appl 	meanClusterHeadUtility 	17.976028677538
scalar RSUExampleScenario.node[92].appl 	NumberofCH 	0.054054054054054
scalar RSUExampleScenario.node[92].appl 	NumberofON 	0.13513513513514
scalar RSUExampleScenario.node[92].appl 	NumberofFN 	0.81081081081081
scalar RSUExampleScenario.node[92].veinsmobility 	startTime 	221.8
scalar RSUExampleScenario.node[92].veinsmobility 	totalTime 	228.2
scalar RSUExampleScenario.node[92].veinsmobility 	stopTime 	450
scalar RSUExampleScenario.node[92].veinsmobility 	minSpeed 	0
scalar RSUExampleScenario.node[92].veinsmobility 	maxSpeed 	13.832180653953
scalar RSUExampleScenario.node[92].veinsmobility 	totalDistance 	150.27418594646
scalar RSUExampleScenario.node[92].veinsmobility 	totalCO2Emission 	263.51514621308
scalar RSUExampleScenario.node[93].appl 	meanClusterNodes 	8.5
scalar RSUExampleScenario.node[93].appl 	meanClusterHeadUtility 	18.73610249462
scalar RSUExampleScenario.node[93].appl 	NumberofCH 	0.054054054054054
scalar RSUExampleScenario.node[93].appl 	NumberofON 	0.40540540540541
scalar RSUExampleScenario.node[93].appl 	NumberofFN 	0.54054054054054
scalar RSUExampleScenario.node[93].veinsmobility 	startTime 	224.2
scalar RSUExampleScenario.node[93].veinsmobility 	totalTime 	225.8
scalar RSUExampleScenario.node[93].veinsmobility 	stopTime 	450
scalar RSUExampleScenario.node[93].veinsmobility 	minSpeed 	0
scalar RSUExampleScenario.node[93].veinsmobility 	maxSpeed 	13.866441969383
scalar RSUExampleScenario.node[93].veinsmobility 	totalDistance 	123.79347412855
scalar RSUExampleScenario.node[93].veinsmobility 	totalCO2Emission 	251.38586679828
scalar RSUExampleScenario.node[94].appl 	meanClusterNodes 	0
scalar RSUExampleScenario.node[94].appl 	meanClusterHeadUtility 	0
scalar RSUExampleScenario.node[94].appl 	NumberofCH 	0
scalar RSUExampleScenario.node[94].appl 	NumberofON 	0.45945945945946
scalar RSUExampleScenario.node[94].appl 	NumberofFN 	0.54054054054054
scalar RSUExampleScenario.node[94].veinsmobility 	startTime 	226.6
scalar RSUExampleScenario.node[94].veinsmobility 	totalTime 	223.4
scalar RSUExampleScenario.node[94].veinsmobility 	stopTime 	450
scalar RSUExampleScenario.node[94].veinsmobility 	minSpeed 	0
scalar RSUExampleScenario.node[94].veinsmobility 	maxSpeed 	13.766422874308
scalar RSUExampleScenario.node[94].veinsmobility 	totalDistance 	112.44329615415
scalar RSUExampleScenario.node[94].veinsmobility 	totalCO2Emission 	245.73578221316
scalar RSUExampleScenario.node[95].appl 	meanClusterNodes 	4
scalar RSUExampleScenario.node[95].appl 	meanClusterHeadUtility 	18.511025103707
scalar RSUExampleScenario.node[95].appl 	NumberofCH 	0.054054054054054
scalar RSUExampleScenario.node[95].appl 	NumberofON 	0.35135135135135
scalar RSUExampleScenario.node[95].appl 	NumberofFN 	0.59459459459459
scalar RSUExampleScenario.node[95].veinsmobility 	startTime 	229
scalar RSUExampleScenario.node[95].veinsmobility 	totalTime 	221
scalar RSUExampleScenario.node[95].veinsmobility 	stopTime 	450
scalar RSUExampleScenario.node[95].veinsmobility 	minSpeed 	0
scalar RSUExampleScenario.node[95].veinsmobility 	maxSpeed 	13.885993580399
scalar RSUExampleScenario.node[95].veinsmobility 	totalDistance 	99.433209382712
scalar RSUExampleScenario.node[95].veinsmobility 	totalCO2Emission 	242.67417861381
scalar RSUExampleScenario.node[96].appl 	meanClusterNodes 	3.5
scalar RSUExampleScenario.node[96].appl 	meanClusterHeadUtility 	11.033360150793
scalar RSUExampleScenario.node[96].appl 	NumberofCH 	0.10810810810811
scalar RSUExampleScenario.node[96].appl 	NumberofON 	0.27027027027027
scalar RSUExampleScenario.node[96].appl 	NumberofFN 	0.62162162162162
scalar RSUExampleScenario.node[96].veinsmobility 	startTime 	231.4
scalar RSUExampleScenario.node[96].veinsmobility 	totalTime 	218.6
scalar RSUExampleScenario.node[96].veinsmobility 	stopTime 	450
scalar RSUExampleScenario.node[96].veinsmobility 	minSpeed 	0
scalar RSUExampleScenario.node[96].veinsmobility 	maxSpeed 	13.68426333832
scalar RSUExampleScenario.node[96].veinsmobility 	totalDistance 	83.280644349039
scalar RSUExampleScenario.node[96].veinsmobility 	totalCO2Emission 	239.33230285664
scalar RSUExampleScenario.node[97].appl 	meanClusterNodes 	3
scalar RSUExampleScenario.node[97].appl 	meanClusterHeadUtility 	18.893590093199
scalar RSUExampleScenario.node[97].appl 	NumberofCH 	0.054054054054054
scalar RSUExampleScenario.node[97].appl 	NumberofON 	0.64864864864865
scalar RSUExampleScenario.node[97].appl 	NumberofFN 	0.2972972972973
scalar RSUExampleScenario.node[97].veinsmobility 	startTime 	233.8
scalar RSUExampleScenario.node[97].veinsmobility 	totalTime 	216.2
scalar RSUExampleScenario.node[97].veinsmobility 	stopTime 	450
scalar RSUExampleScenario.node[97].veinsmobility 	minSpeed 	0
scalar RSUExampleScenario.node[97].veinsmobility 	maxSpeed 	12.192888463845
scalar RSUExampleScenario.node[97].veinsmobility 	totalDistance 	55.129031859995
scalar RSUExampleScenario.node[97].veinsmobility 	totalCO2Emission 	231.46200817077
scalar RSUExampleScenario.node[98].appl 	meanClusterNodes 	4.5
scalar RSUExampleScenario.node[98].appl 	meanClusterHeadUtility 	19.446124665421
scalar RSUExampleScenario.node[98].appl 	NumberofCH 	0.054054054054054
scalar RSUExampleScenario.node[98].appl 	NumberofON 	0.56756756756757
scalar RSUExampleScenario.node[98].appl 	NumberofFN 	0.37837837837838
scalar RSUExampleScenario.node[98].veinsmobility 	startTime 	236.2
scalar RSUExampleScenario.node[98].veinsmobility 	totalTime 	213.8
scalar RSUExampleScenario.node[98].veinsmobility 	stopTime 	450
scalar RSUExampleScenario.node[98].veinsmobility 	minSpeed 	0
scalar RSUExampleScenario.node[98].veinsmobility 	maxSpeed 	7.6516707285594
scalar RSUExampleScenario.node[98].veinsmobility 	totalDistance 	22.004920139668
scalar RSUExampleScenario.node[98].veinsmobility 	totalCO2Emission 	216.47960940362
scalar RSUExampleScenario.node[99].appl 	meanClusterNodes 	5
scalar RSUExampleScenario.node[99].appl 	meanClusterHeadUtility 	17.784683992829
scalar RSUExampleScenario.node[99].appl 	NumberofCH 	0.054054054054054
scalar RSUExampleScenario.node[99].appl 	NumberofON 	0.64864864864865
scalar RSUExampleScenario.node[99].appl 	NumberofFN 	0.2972972972973
scalar RSUExampleScenario.node[99].veinsmobility 	startTime 	238.6
scalar RSUExampleScenario.node[99].veinsmobility 	totalTime 	211.4
scalar RSUExampleScenario.node[99].veinsmobility 	stopTime 	450
scalar RSUExampleScenario.node[99].veinsmobility 	minSpeed 	0
scalar RSUExampleScenario.node[99].veinsmobility 	maxSpeed 	3.0958653533386
scalar RSUExampleScenario.node[99].veinsmobility 	totalDistance 	3.3724832935105
scalar RSUExampleScenario.node[99].veinsmobility 	totalCO2Emission 	207.11430917832
