version 2
run statisticRVV-127-20150327-05:30:49-15224
attr c 14
attr configname statisticRVV
attr datetime 20150327-05:30:49
attr experiment statisticRVV
attr inifile omnetpp.ini
attr iterationvars "$sc=\"erlangen-medium.launchd.xml\", $p=1/15, $c=14"
attr iterationvars2 "$sc=\"erlangen-medium.launchd.xml\", $p=1/15, $c=14, $repetition=7"
attr measurement "$sc=\"erlangen-medium.launchd.xml\", $p=1/15, $c=14"
attr network RSUExampleScenario
attr p 1/15
attr processid 15224
attr repetition 7
attr replication #7
attr resultdir results
attr runnumber 127
attr sc "\"erlangen-medium.launchd.xml\""
attr seedset 127

scalar . 	c 	14
scalar RSUExampleScenario.node[0].veinsmobility 	startTime 	0.1
scalar RSUExampleScenario.node[0].veinsmobility 	totalTime 	264.1
scalar RSUExampleScenario.node[0].veinsmobility 	stopTime 	264.3
scalar RSUExampleScenario.node[0].veinsmobility 	minSpeed 	0.25319016681868
scalar RSUExampleScenario.node[0].veinsmobility 	maxSpeed 	13.999943866269
scalar RSUExampleScenario.node[0].veinsmobility 	totalDistance 	3409.5152246503
scalar RSUExampleScenario.node[0].veinsmobility 	totalCO2Emission 	697.02969803844
scalar RSUExampleScenario.node[1].veinsmobility 	startTime 	3.1
scalar RSUExampleScenario.node[1].veinsmobility 	totalTime 	265.1
scalar RSUExampleScenario.node[1].veinsmobility 	stopTime 	268.3
scalar RSUExampleScenario.node[1].veinsmobility 	minSpeed 	0.25823666530196
scalar RSUExampleScenario.node[1].veinsmobility 	maxSpeed 	13.999851540201
scalar RSUExampleScenario.node[1].veinsmobility 	totalDistance 	3409.3505945255
scalar RSUExampleScenario.node[1].veinsmobility 	totalCO2Emission 	693.13626090962
scalar RSUExampleScenario.node[2].veinsmobility 	startTime 	6.1
scalar RSUExampleScenario.node[2].veinsmobility 	totalTime 	265.8
scalar RSUExampleScenario.node[2].veinsmobility 	stopTime 	272
scalar RSUExampleScenario.node[2].veinsmobility 	minSpeed 	0.24782466452103
scalar RSUExampleScenario.node[2].veinsmobility 	maxSpeed 	13.999970367735
scalar RSUExampleScenario.node[2].veinsmobility 	totalDistance 	3409.4842641178
scalar RSUExampleScenario.node[2].veinsmobility 	totalCO2Emission 	688.07169561489
scalar RSUExampleScenario.node[3].veinsmobility 	startTime 	9.1
scalar RSUExampleScenario.node[3].veinsmobility 	totalTime 	266.3
scalar RSUExampleScenario.node[3].veinsmobility 	stopTime 	275.5
scalar RSUExampleScenario.node[3].veinsmobility 	minSpeed 	0.25439620824275
scalar RSUExampleScenario.node[3].veinsmobility 	maxSpeed 	13.999912120632
scalar RSUExampleScenario.node[3].veinsmobility 	totalDistance 	3409.3202456139
scalar RSUExampleScenario.node[3].veinsmobility 	totalCO2Emission 	692.31964875964
scalar RSUExampleScenario.node[4].veinsmobility 	startTime 	12.1
scalar RSUExampleScenario.node[4].veinsmobility 	totalTime 	266.7
scalar RSUExampleScenario.node[4].veinsmobility 	stopTime 	278.9
scalar RSUExampleScenario.node[4].veinsmobility 	minSpeed 	0.24735587527324
scalar RSUExampleScenario.node[4].veinsmobility 	maxSpeed 	13.999966442038
scalar RSUExampleScenario.node[4].veinsmobility 	totalDistance 	3413.7833814766
scalar RSUExampleScenario.node[4].veinsmobility 	totalCO2Emission 	694.9482999551
scalar RSUExampleScenario.node[5].veinsmobility 	startTime 	15.1
scalar RSUExampleScenario.node[5].veinsmobility 	totalTime 	266.9
scalar RSUExampleScenario.node[5].veinsmobility 	stopTime 	282.1
scalar RSUExampleScenario.node[5].veinsmobility 	minSpeed 	0.25819427903462
scalar RSUExampleScenario.node[5].veinsmobility 	maxSpeed 	13.99994947084
scalar RSUExampleScenario.node[5].veinsmobility 	totalDistance 	3409.4829289112
scalar RSUExampleScenario.node[5].veinsmobility 	totalCO2Emission 	689.51607633473
scalar RSUExampleScenario.node[6].veinsmobility 	startTime 	18.1
scalar RSUExampleScenario.node[6].veinsmobility 	totalTime 	266.9
scalar RSUExampleScenario.node[6].veinsmobility 	stopTime 	285.1
scalar RSUExampleScenario.node[6].veinsmobility 	minSpeed 	0.25186812057765
scalar RSUExampleScenario.node[6].veinsmobility 	maxSpeed 	13.999998886562
scalar RSUExampleScenario.node[6].veinsmobility 	totalDistance 	3413.8264880971
scalar RSUExampleScenario.node[6].veinsmobility 	totalCO2Emission 	689.18008622251
scalar RSUExampleScenario.node[7].veinsmobility 	startTime 	21.1
scalar RSUExampleScenario.node[7].veinsmobility 	totalTime 	267
scalar RSUExampleScenario.node[7].veinsmobility 	stopTime 	288.2
scalar RSUExampleScenario.node[7].veinsmobility 	minSpeed 	0.25005345361005
scalar RSUExampleScenario.node[7].veinsmobility 	maxSpeed 	13.999903972491
scalar RSUExampleScenario.node[7].veinsmobility 	totalDistance 	3409.1697540572
scalar RSUExampleScenario.node[7].veinsmobility 	totalCO2Emission 	687.88163883888
scalar RSUExampleScenario.node[8].veinsmobility 	startTime 	24.1
scalar RSUExampleScenario.node[8].veinsmobility 	totalTime 	267
scalar RSUExampleScenario.node[8].veinsmobility 	stopTime 	291.2
scalar RSUExampleScenario.node[8].veinsmobility 	minSpeed 	0.25079214557074
scalar RSUExampleScenario.node[8].veinsmobility 	maxSpeed 	13.999970318368
scalar RSUExampleScenario.node[8].veinsmobility 	totalDistance 	3413.6671484255
scalar RSUExampleScenario.node[8].veinsmobility 	totalCO2Emission 	690.97457725873
scalar RSUExampleScenario.node[9].veinsmobility 	startTime 	27.1
scalar RSUExampleScenario.node[9].veinsmobility 	totalTime 	267.1
scalar RSUExampleScenario.node[9].veinsmobility 	stopTime 	294.3
scalar RSUExampleScenario.node[9].veinsmobility 	minSpeed 	0.2506131628775
scalar RSUExampleScenario.node[9].veinsmobility 	maxSpeed 	13.999814490192
scalar RSUExampleScenario.node[9].veinsmobility 	totalDistance 	3409.8219795302
scalar RSUExampleScenario.node[9].veinsmobility 	totalCO2Emission 	691.26640899101
scalar RSUExampleScenario.node[10].veinsmobility 	startTime 	30.1
scalar RSUExampleScenario.node[10].veinsmobility 	totalTime 	267.1
scalar RSUExampleScenario.node[10].veinsmobility 	stopTime 	297.3
scalar RSUExampleScenario.node[10].veinsmobility 	minSpeed 	0.25894188840641
scalar RSUExampleScenario.node[10].veinsmobility 	maxSpeed 	13.999927910834
scalar RSUExampleScenario.node[10].veinsmobility 	totalDistance 	3409.6125180626
scalar RSUExampleScenario.node[10].veinsmobility 	totalCO2Emission 	690.95893619688
scalar RSUExampleScenario.node[11].veinsmobility 	startTime 	33.1
scalar RSUExampleScenario.node[11].veinsmobility 	totalTime 	267.1
scalar RSUExampleScenario.node[11].veinsmobility 	stopTime 	300.3
scalar RSUExampleScenario.node[11].veinsmobility 	minSpeed 	0.25999301518756
scalar RSUExampleScenario.node[11].veinsmobility 	maxSpeed 	13.999964115459
scalar RSUExampleScenario.node[11].veinsmobility 	totalDistance 	3413.7891825723
scalar RSUExampleScenario.node[11].veinsmobility 	totalCO2Emission 	690.69250227791
scalar RSUExampleScenario.node[12].veinsmobility 	startTime 	36.1
scalar RSUExampleScenario.node[12].veinsmobility 	totalTime 	267.1
scalar RSUExampleScenario.node[12].veinsmobility 	stopTime 	303.3
scalar RSUExampleScenario.node[12].veinsmobility 	minSpeed 	0.25575265062088
scalar RSUExampleScenario.node[12].veinsmobility 	maxSpeed 	13.999992520176
scalar RSUExampleScenario.node[12].veinsmobility 	totalDistance 	3409.4451773236
scalar RSUExampleScenario.node[12].veinsmobility 	totalCO2Emission 	695.53691644903
scalar RSUExampleScenario.node[13].veinsmobility 	startTime 	39.1
scalar RSUExampleScenario.node[13].veinsmobility 	totalTime 	267.1
scalar RSUExampleScenario.node[13].veinsmobility 	stopTime 	306.3
scalar RSUExampleScenario.node[13].veinsmobility 	minSpeed 	0.25211094881524
scalar RSUExampleScenario.node[13].veinsmobility 	maxSpeed 	13.999941373488
scalar RSUExampleScenario.node[13].veinsmobility 	totalDistance 	3413.5689697533
scalar RSUExampleScenario.node[13].veinsmobility 	totalCO2Emission 	689.04569536333
scalar RSUExampleScenario.node[14].veinsmobility 	startTime 	42.1
scalar RSUExampleScenario.node[14].veinsmobility 	totalTime 	267.1
scalar RSUExampleScenario.node[14].veinsmobility 	stopTime 	309.3
scalar RSUExampleScenario.node[14].veinsmobility 	minSpeed 	0.25899295596732
scalar RSUExampleScenario.node[14].veinsmobility 	maxSpeed 	13.999911378068
scalar RSUExampleScenario.node[14].veinsmobility 	totalDistance 	3409.5041844462
scalar RSUExampleScenario.node[14].veinsmobility 	totalCO2Emission 	692.76880722905
scalar RSUExampleScenario.node[15].veinsmobility 	startTime 	45.1
scalar RSUExampleScenario.node[15].veinsmobility 	totalTime 	267.1
scalar RSUExampleScenario.node[15].veinsmobility 	stopTime 	312.3
scalar RSUExampleScenario.node[15].veinsmobility 	minSpeed 	0.25840558064287
scalar RSUExampleScenario.node[15].veinsmobility 	maxSpeed 	13.999978279755
scalar RSUExampleScenario.node[15].veinsmobility 	totalDistance 	3413.7200935421
scalar RSUExampleScenario.node[15].veinsmobility 	totalCO2Emission 	688.46959320865
scalar RSUExampleScenario.node[16].veinsmobility 	startTime 	48.1
scalar RSUExampleScenario.node[16].veinsmobility 	totalTime 	267.1
scalar RSUExampleScenario.node[16].veinsmobility 	stopTime 	315.3
scalar RSUExampleScenario.node[16].veinsmobility 	minSpeed 	0.24721871631988
scalar RSUExampleScenario.node[16].veinsmobility 	maxSpeed 	13.999980181674
scalar RSUExampleScenario.node[16].veinsmobility 	totalDistance 	3409.555628796
scalar RSUExampleScenario.node[16].veinsmobility 	totalCO2Emission 	691.10104553573
scalar RSUExampleScenario.node[17].veinsmobility 	startTime 	51.1
scalar RSUExampleScenario.node[17].veinsmobility 	totalTime 	267.1
scalar RSUExampleScenario.node[17].veinsmobility 	stopTime 	318.3
scalar RSUExampleScenario.node[17].veinsmobility 	minSpeed 	0.25433138815709
scalar RSUExampleScenario.node[17].veinsmobility 	maxSpeed 	13.999942738907
scalar RSUExampleScenario.node[17].veinsmobility 	totalDistance 	3413.6730803803
scalar RSUExampleScenario.node[17].veinsmobility 	totalCO2Emission 	688.69599733608
scalar RSUExampleScenario.node[18].veinsmobility 	startTime 	54.1
scalar RSUExampleScenario.node[18].veinsmobility 	totalTime 	267.1
scalar RSUExampleScenario.node[18].veinsmobility 	stopTime 	321.3
scalar RSUExampleScenario.node[18].veinsmobility 	minSpeed 	0.25893168033217
scalar RSUExampleScenario.node[18].veinsmobility 	maxSpeed 	13.999923269753
scalar RSUExampleScenario.node[18].veinsmobility 	totalDistance 	3409.5394243096
scalar RSUExampleScenario.node[18].veinsmobility 	totalCO2Emission 	692.31212464947
scalar RSUExampleScenario.node[19].veinsmobility 	startTime 	57.1
scalar RSUExampleScenario.node[19].veinsmobility 	totalTime 	267.1
scalar RSUExampleScenario.node[19].veinsmobility 	stopTime 	324.3
scalar RSUExampleScenario.node[19].veinsmobility 	minSpeed 	0.25834990978776
scalar RSUExampleScenario.node[19].veinsmobility 	maxSpeed 	13.999999608514
scalar RSUExampleScenario.node[19].veinsmobility 	totalDistance 	3413.9743098408
scalar RSUExampleScenario.node[19].veinsmobility 	totalCO2Emission 	690.04794790746
scalar RSUExampleScenario.node[20].veinsmobility 	startTime 	60.1
scalar RSUExampleScenario.node[20].veinsmobility 	totalTime 	267.1
scalar RSUExampleScenario.node[20].veinsmobility 	stopTime 	327.3
scalar RSUExampleScenario.node[20].veinsmobility 	minSpeed 	0.25642810930102
scalar RSUExampleScenario.node[20].veinsmobility 	maxSpeed 	13.999970674077
scalar RSUExampleScenario.node[20].veinsmobility 	totalDistance 	3409.5116436991
scalar RSUExampleScenario.node[20].veinsmobility 	totalCO2Emission 	695.22526727979
scalar RSUExampleScenario.node[21].veinsmobility 	startTime 	63.1
scalar RSUExampleScenario.node[21].veinsmobility 	totalTime 	267.1
scalar RSUExampleScenario.node[21].veinsmobility 	stopTime 	330.3
scalar RSUExampleScenario.node[21].veinsmobility 	minSpeed 	0.2581705782318
scalar RSUExampleScenario.node[21].veinsmobility 	maxSpeed 	13.999997427161
scalar RSUExampleScenario.node[21].veinsmobility 	totalDistance 	3413.4103021324
scalar RSUExampleScenario.node[21].veinsmobility 	totalCO2Emission 	695.92736725309
scalar RSUExampleScenario.node[22].veinsmobility 	startTime 	66.1
scalar RSUExampleScenario.node[22].veinsmobility 	totalTime 	267.1
scalar RSUExampleScenario.node[22].veinsmobility 	stopTime 	333.3
scalar RSUExampleScenario.node[22].veinsmobility 	minSpeed 	0.24940606415644
scalar RSUExampleScenario.node[22].veinsmobility 	maxSpeed 	13.999998089394
scalar RSUExampleScenario.node[22].veinsmobility 	totalDistance 	3409.4751850099
scalar RSUExampleScenario.node[22].veinsmobility 	totalCO2Emission 	693.3113903503
scalar RSUExampleScenario.node[23].veinsmobility 	startTime 	69.1
scalar RSUExampleScenario.node[23].veinsmobility 	totalTime 	267.1
scalar RSUExampleScenario.node[23].veinsmobility 	stopTime 	336.3
scalar RSUExampleScenario.node[23].veinsmobility 	minSpeed 	0.25248223086749
scalar RSUExampleScenario.node[23].veinsmobility 	maxSpeed 	13.999966216148
scalar RSUExampleScenario.node[23].veinsmobility 	totalDistance 	3414.2206091288
scalar RSUExampleScenario.node[23].veinsmobility 	totalCO2Emission 	691.48857668277
scalar RSUExampleScenario.node[24].veinsmobility 	startTime 	72.1
scalar RSUExampleScenario.node[24].veinsmobility 	totalTime 	267.1
scalar RSUExampleScenario.node[24].veinsmobility 	stopTime 	339.3
scalar RSUExampleScenario.node[24].veinsmobility 	minSpeed 	0.25883631964517
scalar RSUExampleScenario.node[24].veinsmobility 	maxSpeed 	13.999997882694
scalar RSUExampleScenario.node[24].veinsmobility 	totalDistance 	3409.8193704049
scalar RSUExampleScenario.node[24].veinsmobility 	totalCO2Emission 	694.99087703431
scalar RSUExampleScenario.node[25].veinsmobility 	startTime 	75.1
scalar RSUExampleScenario.node[25].veinsmobility 	totalTime 	267.1
scalar RSUExampleScenario.node[25].veinsmobility 	stopTime 	342.3
scalar RSUExampleScenario.node[25].veinsmobility 	minSpeed 	0.24733887900738
scalar RSUExampleScenario.node[25].veinsmobility 	maxSpeed 	13.9998783458
scalar RSUExampleScenario.node[25].veinsmobility 	totalDistance 	3413.9042888294
scalar RSUExampleScenario.node[25].veinsmobility 	totalCO2Emission 	690.58460257014
scalar RSUExampleScenario.node[26].veinsmobility 	startTime 	78.1
scalar RSUExampleScenario.node[26].veinsmobility 	totalTime 	267.1
scalar RSUExampleScenario.node[26].veinsmobility 	stopTime 	345.3
scalar RSUExampleScenario.node[26].veinsmobility 	minSpeed 	0.25217435172363
scalar RSUExampleScenario.node[26].veinsmobility 	maxSpeed 	13.999861545435
scalar RSUExampleScenario.node[26].veinsmobility 	totalDistance 	3409.5919612537
scalar RSUExampleScenario.node[26].veinsmobility 	totalCO2Emission 	691.26423090207
scalar RSUExampleScenario.node[27].veinsmobility 	startTime 	81.1
scalar RSUExampleScenario.node[27].veinsmobility 	totalTime 	267.1
scalar RSUExampleScenario.node[27].veinsmobility 	stopTime 	348.3
scalar RSUExampleScenario.node[27].veinsmobility 	minSpeed 	0.25654903954524
scalar RSUExampleScenario.node[27].veinsmobility 	maxSpeed 	13.999835807297
scalar RSUExampleScenario.node[27].veinsmobility 	totalDistance 	3414.0586966143
scalar RSUExampleScenario.node[27].veinsmobility 	totalCO2Emission 	691.78708270909
scalar RSUExampleScenario.node[28].veinsmobility 	startTime 	84.1
scalar RSUExampleScenario.node[28].veinsmobility 	totalTime 	267.1
scalar RSUExampleScenario.node[28].veinsmobility 	stopTime 	351.3
scalar RSUExampleScenario.node[28].veinsmobility 	minSpeed 	0.25619294905756
scalar RSUExampleScenario.node[28].veinsmobility 	maxSpeed 	13.999866002728
scalar RSUExampleScenario.node[28].veinsmobility 	totalDistance 	3409.4787625022
scalar RSUExampleScenario.node[28].veinsmobility 	totalCO2Emission 	687.07295762307
scalar RSUExampleScenario.node[29].veinsmobility 	startTime 	87.1
scalar RSUExampleScenario.node[29].veinsmobility 	totalTime 	267.1
scalar RSUExampleScenario.node[29].veinsmobility 	stopTime 	354.3
scalar RSUExampleScenario.node[29].veinsmobility 	minSpeed 	0.2506949130178
scalar RSUExampleScenario.node[29].veinsmobility 	maxSpeed 	13.999974279811
scalar RSUExampleScenario.node[29].veinsmobility 	totalDistance 	3413.8066122028
scalar RSUExampleScenario.node[29].veinsmobility 	totalCO2Emission 	688.71445428122
scalar RSUExampleScenario.node[30].veinsmobility 	startTime 	90.1
scalar RSUExampleScenario.node[30].veinsmobility 	totalTime 	267.1
scalar RSUExampleScenario.node[30].veinsmobility 	stopTime 	357.3
scalar RSUExampleScenario.node[30].veinsmobility 	minSpeed 	0.25170539196115
scalar RSUExampleScenario.node[30].veinsmobility 	maxSpeed 	13.999989136215
scalar RSUExampleScenario.node[30].veinsmobility 	totalDistance 	3409.600012622
scalar RSUExampleScenario.node[30].veinsmobility 	totalCO2Emission 	686.16490681914
scalar RSUExampleScenario.node[31].veinsmobility 	startTime 	93.1
scalar RSUExampleScenario.node[31].veinsmobility 	totalTime 	267.2
scalar RSUExampleScenario.node[31].veinsmobility 	stopTime 	360.4
scalar RSUExampleScenario.node[31].veinsmobility 	minSpeed 	0.25402795218979
scalar RSUExampleScenario.node[31].veinsmobility 	maxSpeed 	13.99998227749
scalar RSUExampleScenario.node[31].veinsmobility 	totalDistance 	3413.5112222803
scalar RSUExampleScenario.node[31].veinsmobility 	totalCO2Emission 	689.74139350989
scalar RSUExampleScenario.node[32].veinsmobility 	startTime 	96.1
scalar RSUExampleScenario.node[32].veinsmobility 	totalTime 	267.2
scalar RSUExampleScenario.node[32].veinsmobility 	stopTime 	363.4
scalar RSUExampleScenario.node[32].veinsmobility 	minSpeed 	0.24996017184621
scalar RSUExampleScenario.node[32].veinsmobility 	maxSpeed 	13.999808510782
scalar RSUExampleScenario.node[32].veinsmobility 	totalDistance 	3409.2996728876
scalar RSUExampleScenario.node[32].veinsmobility 	totalCO2Emission 	689.62412618876
scalar RSUExampleScenario.node[33].veinsmobility 	startTime 	99.1
scalar RSUExampleScenario.node[33].veinsmobility 	totalTime 	267.2
scalar RSUExampleScenario.node[33].veinsmobility 	stopTime 	366.4
scalar RSUExampleScenario.node[33].veinsmobility 	minSpeed 	0.24933786961436
scalar RSUExampleScenario.node[33].veinsmobility 	maxSpeed 	13.999933228737
scalar RSUExampleScenario.node[33].veinsmobility 	totalDistance 	3413.9596190847
scalar RSUExampleScenario.node[33].veinsmobility 	totalCO2Emission 	691.42636369083
scalar RSUExampleScenario.node[34].veinsmobility 	startTime 	102.1
scalar RSUExampleScenario.node[34].veinsmobility 	totalTime 	267.2
scalar RSUExampleScenario.node[34].veinsmobility 	stopTime 	369.4
scalar RSUExampleScenario.node[34].veinsmobility 	minSpeed 	0.25758752884087
scalar RSUExampleScenario.node[34].veinsmobility 	maxSpeed 	13.999975378388
scalar RSUExampleScenario.node[34].veinsmobility 	totalDistance 	3409.3125300354
scalar RSUExampleScenario.node[34].veinsmobility 	totalCO2Emission 	690.38219563052
scalar RSUExampleScenario.node[35].veinsmobility 	startTime 	105.1
scalar RSUExampleScenario.node[35].veinsmobility 	totalTime 	267.2
scalar RSUExampleScenario.node[35].veinsmobility 	stopTime 	372.4
scalar RSUExampleScenario.node[35].veinsmobility 	minSpeed 	0.25384878888144
scalar RSUExampleScenario.node[35].veinsmobility 	maxSpeed 	13.999924819898
scalar RSUExampleScenario.node[35].veinsmobility 	totalDistance 	3413.4520712137
scalar RSUExampleScenario.node[35].veinsmobility 	totalCO2Emission 	691.39584661616
scalar RSUExampleScenario.node[36].veinsmobility 	startTime 	108.1
scalar RSUExampleScenario.node[36].veinsmobility 	totalTime 	267.2
scalar RSUExampleScenario.node[36].veinsmobility 	stopTime 	375.4
scalar RSUExampleScenario.node[36].veinsmobility 	minSpeed 	0.2499432058332
scalar RSUExampleScenario.node[36].veinsmobility 	maxSpeed 	13.999996772252
scalar RSUExampleScenario.node[36].veinsmobility 	totalDistance 	3409.7271845198
scalar RSUExampleScenario.node[36].veinsmobility 	totalCO2Emission 	693.6594385573
scalar RSUExampleScenario.node[37].veinsmobility 	startTime 	111.1
scalar RSUExampleScenario.node[37].veinsmobility 	totalTime 	267.2
scalar RSUExampleScenario.node[37].veinsmobility 	stopTime 	378.4
scalar RSUExampleScenario.node[37].veinsmobility 	minSpeed 	0.25314275443158
scalar RSUExampleScenario.node[37].veinsmobility 	maxSpeed 	13.999903246332
scalar RSUExampleScenario.node[37].veinsmobility 	totalDistance 	3409.2538376837
scalar RSUExampleScenario.node[37].veinsmobility 	totalCO2Emission 	690.37258925854
scalar RSUExampleScenario.node[38].veinsmobility 	startTime 	114.1
scalar RSUExampleScenario.node[38].veinsmobility 	totalTime 	267.2
scalar RSUExampleScenario.node[38].veinsmobility 	stopTime 	381.4
scalar RSUExampleScenario.node[38].veinsmobility 	minSpeed 	0.25360379460035
scalar RSUExampleScenario.node[38].veinsmobility 	maxSpeed 	13.999939523055
scalar RSUExampleScenario.node[38].veinsmobility 	totalDistance 	3413.9415729386
scalar RSUExampleScenario.node[38].veinsmobility 	totalCO2Emission 	693.80679375102
scalar RSUExampleScenario.node[39].veinsmobility 	startTime 	117.1
scalar RSUExampleScenario.node[39].veinsmobility 	totalTime 	267.2
scalar RSUExampleScenario.node[39].veinsmobility 	stopTime 	384.4
scalar RSUExampleScenario.node[39].veinsmobility 	minSpeed 	0.25873681737483
scalar RSUExampleScenario.node[39].veinsmobility 	maxSpeed 	13.999945180868
scalar RSUExampleScenario.node[39].veinsmobility 	totalDistance 	3409.5703862078
scalar RSUExampleScenario.node[39].veinsmobility 	totalCO2Emission 	692.13436042077
scalar RSUExampleScenario.node[40].veinsmobility 	startTime 	120.1
scalar RSUExampleScenario.node[40].veinsmobility 	totalTime 	267.2
scalar RSUExampleScenario.node[40].veinsmobility 	stopTime 	387.4
scalar RSUExampleScenario.node[40].veinsmobility 	minSpeed 	0.24829629585077
scalar RSUExampleScenario.node[40].veinsmobility 	maxSpeed 	13.99999015101
scalar RSUExampleScenario.node[40].veinsmobility 	totalDistance 	3414.0401927766
scalar RSUExampleScenario.node[40].veinsmobility 	totalCO2Emission 	692.54236983921
scalar RSUExampleScenario.node[41].veinsmobility 	startTime 	123.1
scalar RSUExampleScenario.node[41].veinsmobility 	totalTime 	267.2
scalar RSUExampleScenario.node[41].veinsmobility 	stopTime 	390.4
scalar RSUExampleScenario.node[41].veinsmobility 	minSpeed 	0.25197627200303
scalar RSUExampleScenario.node[41].veinsmobility 	maxSpeed 	13.999861049342
scalar RSUExampleScenario.node[41].veinsmobility 	totalDistance 	3409.557472378
scalar RSUExampleScenario.node[41].veinsmobility 	totalCO2Emission 	690.99386609488
scalar RSUExampleScenario.node[42].veinsmobility 	startTime 	126.1
scalar RSUExampleScenario.node[42].veinsmobility 	totalTime 	267.2
scalar RSUExampleScenario.node[42].veinsmobility 	stopTime 	393.4
scalar RSUExampleScenario.node[42].veinsmobility 	minSpeed 	0.24881720742909
scalar RSUExampleScenario.node[42].veinsmobility 	maxSpeed 	13.999984168059
scalar RSUExampleScenario.node[42].veinsmobility 	totalDistance 	3413.5044770491
scalar RSUExampleScenario.node[42].veinsmobility 	totalCO2Emission 	693.65378783359
scalar RSUExampleScenario.node[43].veinsmobility 	startTime 	129.1
scalar RSUExampleScenario.node[43].veinsmobility 	totalTime 	267.2
scalar RSUExampleScenario.node[43].veinsmobility 	stopTime 	396.4
scalar RSUExampleScenario.node[43].veinsmobility 	minSpeed 	0.24989011254208
scalar RSUExampleScenario.node[43].veinsmobility 	maxSpeed 	13.999993386627
scalar RSUExampleScenario.node[43].veinsmobility 	totalDistance 	3409.618425061
scalar RSUExampleScenario.node[43].veinsmobility 	totalCO2Emission 	689.91859687901
scalar RSUExampleScenario.node[44].veinsmobility 	startTime 	132.1
scalar RSUExampleScenario.node[44].veinsmobility 	totalTime 	267.3
scalar RSUExampleScenario.node[44].veinsmobility 	stopTime 	399.5
scalar RSUExampleScenario.node[44].veinsmobility 	minSpeed 	0.25395993431285
scalar RSUExampleScenario.node[44].veinsmobility 	maxSpeed 	13.999933186271
scalar RSUExampleScenario.node[44].veinsmobility 	totalDistance 	3414.242473003
scalar RSUExampleScenario.node[44].veinsmobility 	totalCO2Emission 	696.12255867588
scalar RSUExampleScenario.node[45].veinsmobility 	startTime 	135.1
scalar RSUExampleScenario.node[45].veinsmobility 	totalTime 	267.4
scalar RSUExampleScenario.node[45].veinsmobility 	stopTime 	402.6
scalar RSUExampleScenario.node[45].veinsmobility 	minSpeed 	0.24718633926311
scalar RSUExampleScenario.node[45].veinsmobility 	maxSpeed 	13.999991678242
scalar RSUExampleScenario.node[45].veinsmobility 	totalDistance 	3409.8837689982
scalar RSUExampleScenario.node[45].veinsmobility 	totalCO2Emission 	693.62868742249
scalar RSUExampleScenario.node[46].veinsmobility 	startTime 	138.1
scalar RSUExampleScenario.node[46].veinsmobility 	totalTime 	267.5
scalar RSUExampleScenario.node[46].veinsmobility 	stopTime 	405.7
scalar RSUExampleScenario.node[46].veinsmobility 	minSpeed 	0.25502175313816
scalar RSUExampleScenario.node[46].veinsmobility 	maxSpeed 	13.999983680623
scalar RSUExampleScenario.node[46].veinsmobility 	totalDistance 	3413.9699307925
scalar RSUExampleScenario.node[46].veinsmobility 	totalCO2Emission 	694.58347237792
scalar RSUExampleScenario.node[47].veinsmobility 	startTime 	141.1
scalar RSUExampleScenario.node[47].veinsmobility 	totalTime 	267.5
scalar RSUExampleScenario.node[47].veinsmobility 	stopTime 	408.7
scalar RSUExampleScenario.node[47].veinsmobility 	minSpeed 	0.25858627910702
scalar RSUExampleScenario.node[47].veinsmobility 	maxSpeed 	13.999980782282
scalar RSUExampleScenario.node[47].veinsmobility 	totalDistance 	3409.3495824995
scalar RSUExampleScenario.node[47].veinsmobility 	totalCO2Emission 	692.24334168156
scalar RSUExampleScenario.node[48].veinsmobility 	startTime 	144.1
scalar RSUExampleScenario.node[48].veinsmobility 	totalTime 	267.6
scalar RSUExampleScenario.node[48].veinsmobility 	stopTime 	411.8
scalar RSUExampleScenario.node[48].veinsmobility 	minSpeed 	0.25098380645085
scalar RSUExampleScenario.node[48].veinsmobility 	maxSpeed 	13.999956061724
scalar RSUExampleScenario.node[48].veinsmobility 	totalDistance 	3413.9773894865
scalar RSUExampleScenario.node[48].veinsmobility 	totalCO2Emission 	691.36417156366
scalar RSUExampleScenario.node[49].veinsmobility 	startTime 	147.1
scalar RSUExampleScenario.node[49].veinsmobility 	totalTime 	267.7
scalar RSUExampleScenario.node[49].veinsmobility 	stopTime 	414.9
scalar RSUExampleScenario.node[49].veinsmobility 	minSpeed 	0.24919235793245
scalar RSUExampleScenario.node[49].veinsmobility 	maxSpeed 	13.999929932342
scalar RSUExampleScenario.node[49].veinsmobility 	totalDistance 	3409.6393469424
scalar RSUExampleScenario.node[49].veinsmobility 	totalCO2Emission 	692.57836969388
scalar RSUExampleScenario.node[50].veinsmobility 	startTime 	150.1
scalar RSUExampleScenario.node[50].veinsmobility 	totalTime 	267.8
scalar RSUExampleScenario.node[50].veinsmobility 	stopTime 	418
scalar RSUExampleScenario.node[50].veinsmobility 	minSpeed 	0.24752902036207
scalar RSUExampleScenario.node[50].veinsmobility 	maxSpeed 	13.999994744025
scalar RSUExampleScenario.node[50].veinsmobility 	totalDistance 	3409.3286748264
scalar RSUExampleScenario.node[50].veinsmobility 	totalCO2Emission 	689.25621858891
scalar RSUExampleScenario.node[51].veinsmobility 	startTime 	153.1
scalar RSUExampleScenario.node[51].veinsmobility 	totalTime 	268
scalar RSUExampleScenario.node[51].veinsmobility 	stopTime 	421.2
scalar RSUExampleScenario.node[51].veinsmobility 	minSpeed 	0.25092683872161
scalar RSUExampleScenario.node[51].veinsmobility 	maxSpeed 	13.999916651538
scalar RSUExampleScenario.node[51].veinsmobility 	totalDistance 	3414.1848906285
scalar RSUExampleScenario.node[51].veinsmobility 	totalCO2Emission 	691.46935985229
scalar RSUExampleScenario.node[52].veinsmobility 	startTime 	156.1
scalar RSUExampleScenario.node[52].veinsmobility 	totalTime 	268.2
scalar RSUExampleScenario.node[52].veinsmobility 	stopTime 	424.4
scalar RSUExampleScenario.node[52].veinsmobility 	minSpeed 	0.25333840570343
scalar RSUExampleScenario.node[52].veinsmobility 	maxSpeed 	13.99994729209
scalar RSUExampleScenario.node[52].veinsmobility 	totalDistance 	3409.935517079
scalar RSUExampleScenario.node[52].veinsmobility 	totalCO2Emission 	691.31657257282
scalar RSUExampleScenario.node[53].veinsmobility 	startTime 	159.1
scalar RSUExampleScenario.node[53].veinsmobility 	totalTime 	268.4
scalar RSUExampleScenario.node[53].veinsmobility 	stopTime 	427.6
scalar RSUExampleScenario.node[53].veinsmobility 	minSpeed 	0.25790622127638
scalar RSUExampleScenario.node[53].veinsmobility 	maxSpeed 	13.99998937736
scalar RSUExampleScenario.node[53].veinsmobility 	totalDistance 	3414.0573430474
scalar RSUExampleScenario.node[53].veinsmobility 	totalCO2Emission 	688.41987467753
scalar RSUExampleScenario.node[54].veinsmobility 	startTime 	162.1
scalar RSUExampleScenario.node[54].veinsmobility 	totalTime 	268.6
scalar RSUExampleScenario.node[54].veinsmobility 	stopTime 	430.8
scalar RSUExampleScenario.node[54].veinsmobility 	minSpeed 	0.24816067962628
scalar RSUExampleScenario.node[54].veinsmobility 	maxSpeed 	13.999957937733
scalar RSUExampleScenario.node[54].veinsmobility 	totalDistance 	3409.8978795387
scalar RSUExampleScenario.node[54].veinsmobility 	totalCO2Emission 	693.92471429523
scalar RSUExampleScenario.node[55].veinsmobility 	startTime 	165.1
scalar RSUExampleScenario.node[55].veinsmobility 	totalTime 	268.9
scalar RSUExampleScenario.node[55].veinsmobility 	stopTime 	434.1
scalar RSUExampleScenario.node[55].veinsmobility 	minSpeed 	0.25620371669601
scalar RSUExampleScenario.node[55].veinsmobility 	maxSpeed 	13.999969614849
scalar RSUExampleScenario.node[55].veinsmobility 	totalDistance 	3413.5232687601
scalar RSUExampleScenario.node[55].veinsmobility 	totalCO2Emission 	691.98767577692
scalar RSUExampleScenario.node[56].veinsmobility 	startTime 	168.1
scalar RSUExampleScenario.node[56].veinsmobility 	totalTime 	269.2
scalar RSUExampleScenario.node[56].veinsmobility 	stopTime 	437.4
scalar RSUExampleScenario.node[56].veinsmobility 	minSpeed 	0.25797085539857
scalar RSUExampleScenario.node[56].veinsmobility 	maxSpeed 	13.999970488655
scalar RSUExampleScenario.node[56].veinsmobility 	totalDistance 	3409.5274034459
scalar RSUExampleScenario.node[56].veinsmobility 	totalCO2Emission 	694.13713638959
scalar RSUExampleScenario.node[57].veinsmobility 	startTime 	171.1
scalar RSUExampleScenario.node[57].veinsmobility 	totalTime 	269.6
scalar RSUExampleScenario.node[57].veinsmobility 	stopTime 	440.8
scalar RSUExampleScenario.node[57].veinsmobility 	minSpeed 	0.25201310872938
scalar RSUExampleScenario.node[57].veinsmobility 	maxSpeed 	13.999854523051
scalar RSUExampleScenario.node[57].veinsmobility 	totalDistance 	3414.1677892166
scalar RSUExampleScenario.node[57].veinsmobility 	totalCO2Emission 	694.31408656695
scalar RSUExampleScenario.node[58].veinsmobility 	startTime 	174.1
scalar RSUExampleScenario.node[58].veinsmobility 	totalTime 	270.1
scalar RSUExampleScenario.node[58].veinsmobility 	stopTime 	444.3
scalar RSUExampleScenario.node[58].veinsmobility 	minSpeed 	0.25774573877431
scalar RSUExampleScenario.node[58].veinsmobility 	maxSpeed 	13.999942272811
scalar RSUExampleScenario.node[58].veinsmobility 	totalDistance 	3409.8893815145
scalar RSUExampleScenario.node[58].veinsmobility 	totalCO2Emission 	693.16762333399
scalar RSUExampleScenario.node[59].veinsmobility 	startTime 	177.1
scalar RSUExampleScenario.node[59].veinsmobility 	totalTime 	270.7
scalar RSUExampleScenario.node[59].veinsmobility 	stopTime 	447.9
scalar RSUExampleScenario.node[59].veinsmobility 	minSpeed 	0.247206971301
scalar RSUExampleScenario.node[59].veinsmobility 	maxSpeed 	13.999995416307
scalar RSUExampleScenario.node[59].veinsmobility 	totalDistance 	3414.1232439066
scalar RSUExampleScenario.node[59].veinsmobility 	totalCO2Emission 	691.60980388075
scalar RSUExampleScenario.node[60].veinsmobility 	startTime 	180.1
scalar RSUExampleScenario.node[60].veinsmobility 	totalTime 	271.4
scalar RSUExampleScenario.node[60].veinsmobility 	stopTime 	451.6
scalar RSUExampleScenario.node[60].veinsmobility 	minSpeed 	0.2582987825959
scalar RSUExampleScenario.node[60].veinsmobility 	maxSpeed 	13.999981104485
scalar RSUExampleScenario.node[60].veinsmobility 	totalDistance 	3410.0608803081
scalar RSUExampleScenario.node[60].veinsmobility 	totalCO2Emission 	692.07914006441
scalar RSUExampleScenario.node[61].veinsmobility 	startTime 	183.1
scalar RSUExampleScenario.node[61].veinsmobility 	totalTime 	272.1
scalar RSUExampleScenario.node[61].veinsmobility 	stopTime 	455.3
scalar RSUExampleScenario.node[61].veinsmobility 	minSpeed 	0.25390656222031
scalar RSUExampleScenario.node[61].veinsmobility 	maxSpeed 	13.999779957237
scalar RSUExampleScenario.node[61].veinsmobility 	totalDistance 	3413.8188865266
scalar RSUExampleScenario.node[61].veinsmobility 	totalCO2Emission 	692.99456352508
scalar RSUExampleScenario.node[62].veinsmobility 	startTime 	186.1
scalar RSUExampleScenario.node[62].veinsmobility 	totalTime 	272.8
scalar RSUExampleScenario.node[62].veinsmobility 	stopTime 	459
scalar RSUExampleScenario.node[62].veinsmobility 	minSpeed 	0.247200669755
scalar RSUExampleScenario.node[62].veinsmobility 	maxSpeed 	13.99994712722
scalar RSUExampleScenario.node[62].veinsmobility 	totalDistance 	3409.6032697393
scalar RSUExampleScenario.node[62].veinsmobility 	totalCO2Emission 	693.62737040336
scalar RSUExampleScenario.node[63].veinsmobility 	startTime 	189.1
scalar RSUExampleScenario.node[63].veinsmobility 	totalTime 	273.4
scalar RSUExampleScenario.node[63].veinsmobility 	stopTime 	462.6
scalar RSUExampleScenario.node[63].veinsmobility 	minSpeed 	0.249938816346
scalar RSUExampleScenario.node[63].veinsmobility 	maxSpeed 	13.999764457669
scalar RSUExampleScenario.node[63].veinsmobility 	totalDistance 	3413.8241743918
scalar RSUExampleScenario.node[63].veinsmobility 	totalCO2Emission 	696.76817609129
scalar RSUExampleScenario.node[64].veinsmobility 	startTime 	192.1
scalar RSUExampleScenario.node[64].veinsmobility 	totalTime 	274
scalar RSUExampleScenario.node[64].veinsmobility 	stopTime 	466.2
scalar RSUExampleScenario.node[64].veinsmobility 	minSpeed 	0.25872006259602
scalar RSUExampleScenario.node[64].veinsmobility 	maxSpeed 	13.999847888339
scalar RSUExampleScenario.node[64].veinsmobility 	totalDistance 	3409.6906522875
scalar RSUExampleScenario.node[64].veinsmobility 	totalCO2Emission 	694.86287269617
scalar RSUExampleScenario.node[65].veinsmobility 	startTime 	195.1
scalar RSUExampleScenario.node[65].veinsmobility 	totalTime 	274.7
scalar RSUExampleScenario.node[65].veinsmobility 	stopTime 	469.9
scalar RSUExampleScenario.node[65].veinsmobility 	minSpeed 	0.25417625908973
scalar RSUExampleScenario.node[65].veinsmobility 	maxSpeed 	13.999914831766
scalar RSUExampleScenario.node[65].veinsmobility 	totalDistance 	3413.6009605799
scalar RSUExampleScenario.node[65].veinsmobility 	totalCO2Emission 	692.55183754618
scalar RSUExampleScenario.node[66].veinsmobility 	startTime 	198.1
scalar RSUExampleScenario.node[66].veinsmobility 	totalTime 	275.4
scalar RSUExampleScenario.node[66].veinsmobility 	stopTime 	473.6
scalar RSUExampleScenario.node[66].veinsmobility 	minSpeed 	0.24882156826765
scalar RSUExampleScenario.node[66].veinsmobility 	maxSpeed 	13.999973139253
scalar RSUExampleScenario.node[66].veinsmobility 	totalDistance 	3409.8501469358
scalar RSUExampleScenario.node[66].veinsmobility 	totalCO2Emission 	698.11741399996
scalar RSUExampleScenario.node[67].veinsmobility 	startTime 	201.1
scalar RSUExampleScenario.node[67].veinsmobility 	totalTime 	276.1
scalar RSUExampleScenario.node[67].veinsmobility 	stopTime 	477.3
scalar RSUExampleScenario.node[67].veinsmobility 	minSpeed 	0.25060872200434
scalar RSUExampleScenario.node[67].veinsmobility 	maxSpeed 	13.999924913486
scalar RSUExampleScenario.node[67].veinsmobility 	totalDistance 	3413.8875305641
scalar RSUExampleScenario.node[67].veinsmobility 	totalCO2Emission 	697.94366056395
scalar RSUExampleScenario.node[68].veinsmobility 	startTime 	204.1
scalar RSUExampleScenario.node[68].veinsmobility 	totalTime 	276.8
scalar RSUExampleScenario.node[68].veinsmobility 	stopTime 	481
scalar RSUExampleScenario.node[68].veinsmobility 	minSpeed 	0.25629070623941
scalar RSUExampleScenario.node[68].veinsmobility 	maxSpeed 	13.999851657581
scalar RSUExampleScenario.node[68].veinsmobility 	totalDistance 	3409.5172045929
scalar RSUExampleScenario.node[68].veinsmobility 	totalCO2Emission 	696.55207709085
scalar RSUExampleScenario.node[69].veinsmobility 	startTime 	207.1
scalar RSUExampleScenario.node[69].veinsmobility 	totalTime 	277.4
scalar RSUExampleScenario.node[69].veinsmobility 	stopTime 	484.6
scalar RSUExampleScenario.node[69].veinsmobility 	minSpeed 	0.24898898468656
scalar RSUExampleScenario.node[69].veinsmobility 	maxSpeed 	13.999939476079
scalar RSUExampleScenario.node[69].veinsmobility 	totalDistance 	3413.483512042
scalar RSUExampleScenario.node[69].veinsmobility 	totalCO2Emission 	695.94979835993
scalar RSUExampleScenario.node[70].veinsmobility 	startTime 	210.1
scalar RSUExampleScenario.node[70].veinsmobility 	totalTime 	278
scalar RSUExampleScenario.node[70].veinsmobility 	stopTime 	488.2
scalar RSUExampleScenario.node[70].veinsmobility 	minSpeed 	0.25356174758263
scalar RSUExampleScenario.node[70].veinsmobility 	maxSpeed 	13.999859909359
scalar RSUExampleScenario.node[70].veinsmobility 	totalDistance 	3409.975987976
scalar RSUExampleScenario.node[70].veinsmobility 	totalCO2Emission 	697.32806448083
scalar RSUExampleScenario.node[71].veinsmobility 	startTime 	213.1
scalar RSUExampleScenario.node[71].veinsmobility 	totalTime 	278.7
scalar RSUExampleScenario.node[71].veinsmobility 	stopTime 	491.9
scalar RSUExampleScenario.node[71].veinsmobility 	minSpeed 	0.25459432985121
scalar RSUExampleScenario.node[71].veinsmobility 	maxSpeed 	13.999915758511
scalar RSUExampleScenario.node[71].veinsmobility 	totalDistance 	3414.2431335835
scalar RSUExampleScenario.node[71].veinsmobility 	totalCO2Emission 	695.91951762895
scalar RSUExampleScenario.node[72].veinsmobility 	startTime 	216.1
scalar RSUExampleScenario.node[72].veinsmobility 	totalTime 	279.5
scalar RSUExampleScenario.node[72].veinsmobility 	stopTime 	495.7
scalar RSUExampleScenario.node[72].veinsmobility 	minSpeed 	0.25929143384821
scalar RSUExampleScenario.node[72].veinsmobility 	maxSpeed 	13.999977152667
scalar RSUExampleScenario.node[72].veinsmobility 	totalDistance 	3409.5427014171
scalar RSUExampleScenario.node[72].veinsmobility 	totalCO2Emission 	698.97529619614
scalar RSUExampleScenario.node[73].veinsmobility 	startTime 	219.1
scalar RSUExampleScenario.node[73].veinsmobility 	totalTime 	280.3
scalar RSUExampleScenario.node[73].veinsmobility 	stopTime 	499.5
scalar RSUExampleScenario.node[73].veinsmobility 	minSpeed 	0.25545979460631
scalar RSUExampleScenario.node[73].veinsmobility 	maxSpeed 	13.999990582995
scalar RSUExampleScenario.node[73].veinsmobility 	totalDistance 	3410.1600993761
scalar RSUExampleScenario.node[73].veinsmobility 	totalCO2Emission 	706.10137619937
scalar RSUExampleScenario.node[74].veinsmobility 	startTime 	222.1
scalar RSUExampleScenario.node[74].veinsmobility 	totalTime 	281
scalar RSUExampleScenario.node[74].veinsmobility 	stopTime 	503.2
scalar RSUExampleScenario.node[74].veinsmobility 	minSpeed 	0.24740777616925
scalar RSUExampleScenario.node[74].veinsmobility 	maxSpeed 	13.999993283867
scalar RSUExampleScenario.node[74].veinsmobility 	totalDistance 	3413.6991110776
scalar RSUExampleScenario.node[74].veinsmobility 	totalCO2Emission 	701.22746300604
scalar RSUExampleScenario.node[75].veinsmobility 	startTime 	225.1
scalar RSUExampleScenario.node[75].veinsmobility 	totalTime 	281.6
scalar RSUExampleScenario.node[75].veinsmobility 	stopTime 	506.8
scalar RSUExampleScenario.node[75].veinsmobility 	minSpeed 	0.25039114184771
scalar RSUExampleScenario.node[75].veinsmobility 	maxSpeed 	13.999969998677
scalar RSUExampleScenario.node[75].veinsmobility 	totalDistance 	3409.8234908863
scalar RSUExampleScenario.node[75].veinsmobility 	totalCO2Emission 	707.27126797725
scalar RSUExampleScenario.node[76].veinsmobility 	startTime 	228.1
scalar RSUExampleScenario.node[76].veinsmobility 	totalTime 	282.3
scalar RSUExampleScenario.node[76].veinsmobility 	stopTime 	510.5
scalar RSUExampleScenario.node[76].veinsmobility 	minSpeed 	0.25043147514667
scalar RSUExampleScenario.node[76].veinsmobility 	maxSpeed 	13.999884875391
scalar RSUExampleScenario.node[76].veinsmobility 	totalDistance 	3414.2536565818
scalar RSUExampleScenario.node[76].veinsmobility 	totalCO2Emission 	704.2692913274
scalar RSUExampleScenario.node[77].veinsmobility 	startTime 	231.1
scalar RSUExampleScenario.node[77].veinsmobility 	totalTime 	283
scalar RSUExampleScenario.node[77].veinsmobility 	stopTime 	514.2
scalar RSUExampleScenario.node[77].veinsmobility 	minSpeed 	0.2497746720626
scalar RSUExampleScenario.node[77].veinsmobility 	maxSpeed 	13.999926402732
scalar RSUExampleScenario.node[77].veinsmobility 	totalDistance 	3410.1736541608
scalar RSUExampleScenario.node[77].veinsmobility 	totalCO2Emission 	703.97570661322
scalar RSUExampleScenario.node[78].veinsmobility 	startTime 	234.1
scalar RSUExampleScenario.node[78].veinsmobility 	totalTime 	283.7
scalar RSUExampleScenario.node[78].veinsmobility 	stopTime 	517.9
scalar RSUExampleScenario.node[78].veinsmobility 	minSpeed 	0.25952588809701
scalar RSUExampleScenario.node[78].veinsmobility 	maxSpeed 	13.999945540028
scalar RSUExampleScenario.node[78].veinsmobility 	totalDistance 	3414.2348902152
scalar RSUExampleScenario.node[78].veinsmobility 	totalCO2Emission 	707.25750916291
scalar RSUExampleScenario.node[79].veinsmobility 	startTime 	237.1
scalar RSUExampleScenario.node[79].veinsmobility 	totalTime 	284.3
scalar RSUExampleScenario.node[79].veinsmobility 	stopTime 	521.5
scalar RSUExampleScenario.node[79].veinsmobility 	minSpeed 	0.24727245451277
scalar RSUExampleScenario.node[79].veinsmobility 	maxSpeed 	13.999980905866
scalar RSUExampleScenario.node[79].veinsmobility 	totalDistance 	3409.4929811991
scalar RSUExampleScenario.node[79].veinsmobility 	totalCO2Emission 	706.18718944944
scalar RSUExampleScenario.node[80].veinsmobility 	startTime 	240.1
scalar RSUExampleScenario.node[80].veinsmobility 	totalTime 	285
scalar RSUExampleScenario.node[80].veinsmobility 	stopTime 	525.2
scalar RSUExampleScenario.node[80].veinsmobility 	minSpeed 	0.24847083888156
scalar RSUExampleScenario.node[80].veinsmobility 	maxSpeed 	13.999994161215
scalar RSUExampleScenario.node[80].veinsmobility 	totalDistance 	3413.5475840254
scalar RSUExampleScenario.node[80].veinsmobility 	totalCO2Emission 	704.37762144039
scalar RSUExampleScenario.node[81].veinsmobility 	startTime 	243.1
scalar RSUExampleScenario.node[81].veinsmobility 	totalTime 	285.7
scalar RSUExampleScenario.node[81].veinsmobility 	stopTime 	528.9
scalar RSUExampleScenario.node[81].veinsmobility 	minSpeed 	0.25684662096412
scalar RSUExampleScenario.node[81].veinsmobility 	maxSpeed 	13.999968537793
scalar RSUExampleScenario.node[81].veinsmobility 	totalDistance 	3409.5802719924
scalar RSUExampleScenario.node[81].veinsmobility 	totalCO2Emission 	707.09424286
scalar RSUExampleScenario.node[82].veinsmobility 	startTime 	246.1
scalar RSUExampleScenario.node[82].veinsmobility 	totalTime 	286.4
scalar RSUExampleScenario.node[82].veinsmobility 	stopTime 	532.6
scalar RSUExampleScenario.node[82].veinsmobility 	minSpeed 	0.25235817035986
scalar RSUExampleScenario.node[82].veinsmobility 	maxSpeed 	13.999903057248
scalar RSUExampleScenario.node[82].veinsmobility 	totalDistance 	3413.8345356089
scalar RSUExampleScenario.node[82].veinsmobility 	totalCO2Emission 	704.76907736689
scalar RSUExampleScenario.node[83].veinsmobility 	startTime 	249.1
scalar RSUExampleScenario.node[83].veinsmobility 	totalTime 	287
scalar RSUExampleScenario.node[83].veinsmobility 	stopTime 	536.2
scalar RSUExampleScenario.node[83].veinsmobility 	minSpeed 	0.2576244936341
scalar RSUExampleScenario.node[83].veinsmobility 	maxSpeed 	13.999826082194
scalar RSUExampleScenario.node[83].veinsmobility 	totalDistance 	3409.6211919491
scalar RSUExampleScenario.node[83].veinsmobility 	totalCO2Emission 	708.41729441113
scalar RSUExampleScenario.node[84].veinsmobility 	startTime 	252.1
scalar RSUExampleScenario.node[84].veinsmobility 	totalTime 	287.7
scalar RSUExampleScenario.node[84].veinsmobility 	stopTime 	539.9
scalar RSUExampleScenario.node[84].veinsmobility 	minSpeed 	0.25229242016026
scalar RSUExampleScenario.node[84].veinsmobility 	maxSpeed 	13.999725323769
scalar RSUExampleScenario.node[84].veinsmobility 	totalDistance 	3413.5646878428
scalar RSUExampleScenario.node[84].veinsmobility 	totalCO2Emission 	708.07250625279
scalar RSUExampleScenario.node[85].veinsmobility 	startTime 	255.1
scalar RSUExampleScenario.node[85].veinsmobility 	totalTime 	288.4
scalar RSUExampleScenario.node[85].veinsmobility 	stopTime 	543.6
scalar RSUExampleScenario.node[85].veinsmobility 	minSpeed 	0.25342358513665
scalar RSUExampleScenario.node[85].veinsmobility 	maxSpeed 	13.999930104022
scalar RSUExampleScenario.node[85].veinsmobility 	totalDistance 	3409.816774159
scalar RSUExampleScenario.node[85].veinsmobility 	totalCO2Emission 	710.64354601431
scalar RSUExampleScenario.node[86].veinsmobility 	startTime 	258.1
scalar RSUExampleScenario.node[86].veinsmobility 	totalTime 	289.1
scalar RSUExampleScenario.node[86].veinsmobility 	stopTime 	547.3
scalar RSUExampleScenario.node[86].veinsmobility 	minSpeed 	0.25472403545585
scalar RSUExampleScenario.node[86].veinsmobility 	maxSpeed 	13.999938204461
scalar RSUExampleScenario.node[86].veinsmobility 	totalDistance 	3414.0884166268
scalar RSUExampleScenario.node[86].veinsmobility 	totalCO2Emission 	711.68839660901
scalar RSUExampleScenario.node[87].veinsmobility 	startTime 	261.1
scalar RSUExampleScenario.node[87].veinsmobility 	totalTime 	289.8
scalar RSUExampleScenario.node[87].veinsmobility 	stopTime 	551
scalar RSUExampleScenario.node[87].veinsmobility 	minSpeed 	0.25451496465853
scalar RSUExampleScenario.node[87].veinsmobility 	maxSpeed 	13.999750752659
scalar RSUExampleScenario.node[87].veinsmobility 	totalDistance 	3410.0943566675
scalar RSUExampleScenario.node[87].veinsmobility 	totalCO2Emission 	713.31797054863
scalar RSUExampleScenario.node[88].veinsmobility 	startTime 	264.1
scalar RSUExampleScenario.node[88].veinsmobility 	totalTime 	290.5
scalar RSUExampleScenario.node[88].veinsmobility 	stopTime 	554.7
scalar RSUExampleScenario.node[88].veinsmobility 	minSpeed 	0.25921606498281
scalar RSUExampleScenario.node[88].veinsmobility 	maxSpeed 	13.999913139241
scalar RSUExampleScenario.node[88].veinsmobility 	totalDistance 	3414.1372444282
scalar RSUExampleScenario.node[88].veinsmobility 	totalCO2Emission 	715.54517579257
scalar RSUExampleScenario.node[89].veinsmobility 	startTime 	267.1
scalar RSUExampleScenario.node[89].veinsmobility 	totalTime 	291.2
scalar RSUExampleScenario.node[89].veinsmobility 	stopTime 	558.4
scalar RSUExampleScenario.node[89].veinsmobility 	minSpeed 	0.25077758624381
scalar RSUExampleScenario.node[89].veinsmobility 	maxSpeed 	13.999719476539
scalar RSUExampleScenario.node[89].veinsmobility 	totalDistance 	3409.571030206
scalar RSUExampleScenario.node[89].veinsmobility 	totalCO2Emission 	715.46698502134
scalar RSUExampleScenario.node[90].veinsmobility 	startTime 	270.1
scalar RSUExampleScenario.node[90].veinsmobility 	totalTime 	291.9
scalar RSUExampleScenario.node[90].veinsmobility 	stopTime 	562.1
scalar RSUExampleScenario.node[90].veinsmobility 	minSpeed 	0.25054903121293
scalar RSUExampleScenario.node[90].veinsmobility 	maxSpeed 	13.999998556338
scalar RSUExampleScenario.node[90].veinsmobility 	totalDistance 	3414.1686300293
scalar RSUExampleScenario.node[90].veinsmobility 	totalCO2Emission 	711.62523033675
scalar RSUExampleScenario.node[91].veinsmobility 	startTime 	273.1
scalar RSUExampleScenario.node[91].veinsmobility 	totalTime 	292.6
scalar RSUExampleScenario.node[91].veinsmobility 	stopTime 	565.8
scalar RSUExampleScenario.node[91].veinsmobility 	minSpeed 	0.25034259550087
scalar RSUExampleScenario.node[91].veinsmobility 	maxSpeed 	13.999887650511
scalar RSUExampleScenario.node[91].veinsmobility 	totalDistance 	3409.8767891219
scalar RSUExampleScenario.node[91].veinsmobility 	totalCO2Emission 	715.8690019071
scalar RSUExampleScenario.node[92].veinsmobility 	startTime 	276.1
scalar RSUExampleScenario.node[92].veinsmobility 	totalTime 	293.4
scalar RSUExampleScenario.node[92].veinsmobility 	stopTime 	569.6
scalar RSUExampleScenario.node[92].veinsmobility 	minSpeed 	0.25647938944004
scalar RSUExampleScenario.node[92].veinsmobility 	maxSpeed 	13.999941528037
scalar RSUExampleScenario.node[92].veinsmobility 	totalDistance 	3410.2046023798
scalar RSUExampleScenario.node[92].veinsmobility 	totalCO2Emission 	722.72070989158
scalar RSUExampleScenario.node[93].veinsmobility 	startTime 	279.1
scalar RSUExampleScenario.node[93].veinsmobility 	totalTime 	294.1
scalar RSUExampleScenario.node[93].veinsmobility 	stopTime 	573.3
scalar RSUExampleScenario.node[93].veinsmobility 	minSpeed 	0.25717521653906
scalar RSUExampleScenario.node[93].veinsmobility 	maxSpeed 	13.999965637061
scalar RSUExampleScenario.node[93].veinsmobility 	totalDistance 	3413.9065089283
scalar RSUExampleScenario.node[93].veinsmobility 	totalCO2Emission 	718.21597122976
scalar RSUExampleScenario.node[94].veinsmobility 	startTime 	282.1
scalar RSUExampleScenario.node[94].veinsmobility 	totalTime 	294.7
scalar RSUExampleScenario.node[94].veinsmobility 	stopTime 	576.9
scalar RSUExampleScenario.node[94].veinsmobility 	minSpeed 	0.253875443222
scalar RSUExampleScenario.node[94].veinsmobility 	maxSpeed 	13.999970944976
scalar RSUExampleScenario.node[94].veinsmobility 	totalDistance 	3409.5745652015
scalar RSUExampleScenario.node[94].veinsmobility 	totalCO2Emission 	717.84183746218
scalar RSUExampleScenario.node[95].veinsmobility 	startTime 	285.1
scalar RSUExampleScenario.node[95].veinsmobility 	totalTime 	295.3
scalar RSUExampleScenario.node[95].veinsmobility 	stopTime 	580.5
scalar RSUExampleScenario.node[95].veinsmobility 	minSpeed 	0.25149223556719
scalar RSUExampleScenario.node[95].veinsmobility 	maxSpeed 	13.99997524648
scalar RSUExampleScenario.node[95].veinsmobility 	totalDistance 	3414.1861794003
scalar RSUExampleScenario.node[95].veinsmobility 	totalCO2Emission 	718.1786036394
scalar RSUExampleScenario.node[96].veinsmobility 	startTime 	288.1
scalar RSUExampleScenario.node[96].veinsmobility 	totalTime 	296
scalar RSUExampleScenario.node[96].veinsmobility 	stopTime 	584.2
scalar RSUExampleScenario.node[96].veinsmobility 	minSpeed 	0.25123614342092
scalar RSUExampleScenario.node[96].veinsmobility 	maxSpeed 	13.999847508445
scalar RSUExampleScenario.node[96].veinsmobility 	totalDistance 	3409.5769337047
scalar RSUExampleScenario.node[96].veinsmobility 	totalCO2Emission 	714.79169694737
scalar RSUExampleScenario.node[97].veinsmobility 	startTime 	291.1
scalar RSUExampleScenario.node[97].veinsmobility 	totalTime 	296.7
scalar RSUExampleScenario.node[97].veinsmobility 	stopTime 	587.9
scalar RSUExampleScenario.node[97].veinsmobility 	minSpeed 	0.24885053888988
scalar RSUExampleScenario.node[97].veinsmobility 	maxSpeed 	13.999991801917
scalar RSUExampleScenario.node[97].veinsmobility 	totalDistance 	3414.0903140669
scalar RSUExampleScenario.node[97].veinsmobility 	totalCO2Emission 	724.67247627188
scalar RSUExampleScenario.node[98].veinsmobility 	startTime 	294.1
scalar RSUExampleScenario.node[98].veinsmobility 	totalTime 	297.4
scalar RSUExampleScenario.node[98].veinsmobility 	stopTime 	591.6
scalar RSUExampleScenario.node[98].veinsmobility 	minSpeed 	0.25520267392066
scalar RSUExampleScenario.node[98].veinsmobility 	maxSpeed 	13.999954649177
scalar RSUExampleScenario.node[98].veinsmobility 	totalDistance 	3409.6849475835
scalar RSUExampleScenario.node[98].veinsmobility 	totalCO2Emission 	717.9678457907
scalar RSUExampleScenario.node[99].veinsmobility 	startTime 	297.1
scalar RSUExampleScenario.node[99].veinsmobility 	totalTime 	298.1
scalar RSUExampleScenario.node[99].veinsmobility 	stopTime 	595.3
scalar RSUExampleScenario.node[99].veinsmobility 	minSpeed 	0.25344461182063
scalar RSUExampleScenario.node[99].veinsmobility 	maxSpeed 	13.99997258211
scalar RSUExampleScenario.node[99].veinsmobility 	totalDistance 	3414.2987067008
scalar RSUExampleScenario.node[99].veinsmobility 	totalCO2Emission 	719.0752816827
scalar RSUExampleScenario.node[100].veinsmobility 	startTime 	300.1
scalar RSUExampleScenario.node[100].veinsmobility 	totalTime 	298.8
scalar RSUExampleScenario.node[100].veinsmobility 	stopTime 	599
scalar RSUExampleScenario.node[100].veinsmobility 	minSpeed 	0.25177648451133
scalar RSUExampleScenario.node[100].veinsmobility 	maxSpeed 	13.99990176871
scalar RSUExampleScenario.node[100].veinsmobility 	totalDistance 	3409.6399174813
scalar RSUExampleScenario.node[100].veinsmobility 	totalCO2Emission 	721.08997810042
scalar RSUExampleScenario.node[101].veinsmobility 	startTime 	303.1
scalar RSUExampleScenario.node[101].veinsmobility 	totalTime 	299.5
scalar RSUExampleScenario.node[101].veinsmobility 	stopTime 	602.7
scalar RSUExampleScenario.node[101].veinsmobility 	minSpeed 	0.25983209520415
scalar RSUExampleScenario.node[101].veinsmobility 	maxSpeed 	13.999947724165
scalar RSUExampleScenario.node[101].veinsmobility 	totalDistance 	3413.7047025025
scalar RSUExampleScenario.node[101].veinsmobility 	totalCO2Emission 	718.59202156935
scalar RSUExampleScenario.node[102].veinsmobility 	startTime 	306.1
scalar RSUExampleScenario.node[102].veinsmobility 	totalTime 	300.2
scalar RSUExampleScenario.node[102].veinsmobility 	stopTime 	606.4
scalar RSUExampleScenario.node[102].veinsmobility 	minSpeed 	0.25141962984484
scalar RSUExampleScenario.node[102].veinsmobility 	maxSpeed 	13.999907499347
scalar RSUExampleScenario.node[102].veinsmobility 	totalDistance 	3409.5779000514
scalar RSUExampleScenario.node[102].veinsmobility 	totalCO2Emission 	724.9691178485
scalar RSUExampleScenario.node[103].veinsmobility 	startTime 	309.1
scalar RSUExampleScenario.node[103].veinsmobility 	totalTime 	300.9
scalar RSUExampleScenario.node[103].veinsmobility 	stopTime 	610.1
scalar RSUExampleScenario.node[103].veinsmobility 	minSpeed 	0.25065906719258
scalar RSUExampleScenario.node[103].veinsmobility 	maxSpeed 	13.999977042642
scalar RSUExampleScenario.node[103].veinsmobility 	totalDistance 	3414.0769053894
scalar RSUExampleScenario.node[103].veinsmobility 	totalCO2Emission 	728.71910358087
scalar RSUExampleScenario.node[104].veinsmobility 	startTime 	312.1
scalar RSUExampleScenario.node[104].veinsmobility 	totalTime 	301.6
scalar RSUExampleScenario.node[104].veinsmobility 	stopTime 	613.8
scalar RSUExampleScenario.node[104].veinsmobility 	minSpeed 	0.24711337024625
scalar RSUExampleScenario.node[104].veinsmobility 	maxSpeed 	13.999992439451
scalar RSUExampleScenario.node[104].veinsmobility 	totalDistance 	3409.6398560835
scalar RSUExampleScenario.node[104].veinsmobility 	totalCO2Emission 	719.62901957059
scalar RSUExampleScenario.node[105].veinsmobility 	startTime 	315.1
scalar RSUExampleScenario.node[105].veinsmobility 	totalTime 	302.4
scalar RSUExampleScenario.node[105].veinsmobility 	stopTime 	617.6
scalar RSUExampleScenario.node[105].veinsmobility 	minSpeed 	0.25786191683309
scalar RSUExampleScenario.node[105].veinsmobility 	maxSpeed 	13.99999094503
scalar RSUExampleScenario.node[105].veinsmobility 	totalDistance 	3414.1828060962
scalar RSUExampleScenario.node[105].veinsmobility 	totalCO2Emission 	724.72922121157
scalar RSUExampleScenario.node[106].veinsmobility 	startTime 	318.1
scalar RSUExampleScenario.node[106].veinsmobility 	totalTime 	303
scalar RSUExampleScenario.node[106].veinsmobility 	stopTime 	621.2
scalar RSUExampleScenario.node[106].veinsmobility 	minSpeed 	0.25082490506349
scalar RSUExampleScenario.node[106].veinsmobility 	maxSpeed 	13.999907788951
scalar RSUExampleScenario.node[106].veinsmobility 	totalDistance 	3409.4807455756
scalar RSUExampleScenario.node[106].veinsmobility 	totalCO2Emission 	724.71908111239
scalar RSUExampleScenario.node[107].veinsmobility 	startTime 	321.1
scalar RSUExampleScenario.node[107].veinsmobility 	totalTime 	303.6
scalar RSUExampleScenario.node[107].veinsmobility 	stopTime 	624.8
scalar RSUExampleScenario.node[107].veinsmobility 	minSpeed 	0.24931888778391
scalar RSUExampleScenario.node[107].veinsmobility 	maxSpeed 	13.999957467823
scalar RSUExampleScenario.node[107].veinsmobility 	totalDistance 	3413.7620882155
scalar RSUExampleScenario.node[107].veinsmobility 	totalCO2Emission 	722.78936262573
scalar RSUExampleScenario.node[108].veinsmobility 	startTime 	324.1
scalar RSUExampleScenario.node[108].veinsmobility 	totalTime 	304.3
scalar RSUExampleScenario.node[108].veinsmobility 	stopTime 	628.5
scalar RSUExampleScenario.node[108].veinsmobility 	minSpeed 	0.25141326651582
scalar RSUExampleScenario.node[108].veinsmobility 	maxSpeed 	13.999994659002
scalar RSUExampleScenario.node[108].veinsmobility 	totalDistance 	3410.0907046629
scalar RSUExampleScenario.node[108].veinsmobility 	totalCO2Emission 	724.74373804638
scalar RSUExampleScenario.node[109].veinsmobility 	startTime 	327.1
scalar RSUExampleScenario.node[109].veinsmobility 	totalTime 	305
scalar RSUExampleScenario.node[109].veinsmobility 	stopTime 	632.2
scalar RSUExampleScenario.node[109].veinsmobility 	minSpeed 	0.24936932148482
scalar RSUExampleScenario.node[109].veinsmobility 	maxSpeed 	13.999989068415
scalar RSUExampleScenario.node[109].veinsmobility 	totalDistance 	3409.7216183192
scalar RSUExampleScenario.node[109].veinsmobility 	totalCO2Emission 	729.49483560987
scalar RSUExampleScenario.node[110].veinsmobility 	startTime 	330.1
scalar RSUExampleScenario.node[110].veinsmobility 	totalTime 	305.8
scalar RSUExampleScenario.node[110].veinsmobility 	stopTime 	636
scalar RSUExampleScenario.node[110].veinsmobility 	minSpeed 	0.25710667927866
scalar RSUExampleScenario.node[110].veinsmobility 	maxSpeed 	13.999931225572
scalar RSUExampleScenario.node[110].veinsmobility 	totalDistance 	3413.9558896631
scalar RSUExampleScenario.node[110].veinsmobility 	totalCO2Emission 	727.2078790192
scalar RSUExampleScenario.node[111].veinsmobility 	startTime 	333.1
scalar RSUExampleScenario.node[111].veinsmobility 	totalTime 	306.5
scalar RSUExampleScenario.node[111].veinsmobility 	stopTime 	639.7
scalar RSUExampleScenario.node[111].veinsmobility 	minSpeed 	0.25393093565037
scalar RSUExampleScenario.node[111].veinsmobility 	maxSpeed 	13.999990705731
scalar RSUExampleScenario.node[111].veinsmobility 	totalDistance 	3409.6551354656
scalar RSUExampleScenario.node[111].veinsmobility 	totalCO2Emission 	731.14405592514
scalar RSUExampleScenario.node[112].veinsmobility 	startTime 	336.1
scalar RSUExampleScenario.node[112].veinsmobility 	totalTime 	307.2
scalar RSUExampleScenario.node[112].veinsmobility 	stopTime 	643.4
scalar RSUExampleScenario.node[112].veinsmobility 	minSpeed 	0.25693931985134
scalar RSUExampleScenario.node[112].veinsmobility 	maxSpeed 	13.999925145854
scalar RSUExampleScenario.node[112].veinsmobility 	totalDistance 	3414.1917601223
scalar RSUExampleScenario.node[112].veinsmobility 	totalCO2Emission 	728.72159360555
scalar RSUExampleScenario.node[113].veinsmobility 	startTime 	339.1
scalar RSUExampleScenario.node[113].veinsmobility 	totalTime 	307.9
scalar RSUExampleScenario.node[113].veinsmobility 	stopTime 	647.1
scalar RSUExampleScenario.node[113].veinsmobility 	minSpeed 	0.25022582241287
scalar RSUExampleScenario.node[113].veinsmobility 	maxSpeed 	13.999988168457
scalar RSUExampleScenario.node[113].veinsmobility 	totalDistance 	3409.9274766683
scalar RSUExampleScenario.node[113].veinsmobility 	totalCO2Emission 	732.37437519668
scalar RSUExampleScenario.node[114].veinsmobility 	startTime 	342.1
scalar RSUExampleScenario.node[114].veinsmobility 	totalTime 	308.7
scalar RSUExampleScenario.node[114].veinsmobility 	stopTime 	650.9
scalar RSUExampleScenario.node[114].veinsmobility 	minSpeed 	0.25477170874388
scalar RSUExampleScenario.node[114].veinsmobility 	maxSpeed 	13.999942509355
scalar RSUExampleScenario.node[114].veinsmobility 	totalDistance 	3413.8934364179
scalar RSUExampleScenario.node[114].veinsmobility 	totalCO2Emission 	727.25001016882
scalar RSUExampleScenario.node[115].veinsmobility 	startTime 	345.1
scalar RSUExampleScenario.node[115].veinsmobility 	totalTime 	309.4
scalar RSUExampleScenario.node[115].veinsmobility 	stopTime 	654.6
scalar RSUExampleScenario.node[115].veinsmobility 	minSpeed 	0.25741853214568
scalar RSUExampleScenario.node[115].veinsmobility 	maxSpeed 	13.999932024798
scalar RSUExampleScenario.node[115].veinsmobility 	totalDistance 	3410.0020274672
scalar RSUExampleScenario.node[115].veinsmobility 	totalCO2Emission 	729.68060239514
scalar RSUExampleScenario.node[116].veinsmobility 	startTime 	348.1
scalar RSUExampleScenario.node[116].veinsmobility 	totalTime 	310.1
scalar RSUExampleScenario.node[116].veinsmobility 	stopTime 	658.3
scalar RSUExampleScenario.node[116].veinsmobility 	minSpeed 	0.25089677955676
scalar RSUExampleScenario.node[116].veinsmobility 	maxSpeed 	13.999939857214
scalar RSUExampleScenario.node[116].veinsmobility 	totalDistance 	3414.0484367327
scalar RSUExampleScenario.node[116].veinsmobility 	totalCO2Emission 	728.91199089614
scalar RSUExampleScenario.node[117].veinsmobility 	startTime 	351.1
scalar RSUExampleScenario.node[117].veinsmobility 	totalTime 	310.8
scalar RSUExampleScenario.node[117].veinsmobility 	stopTime 	662
scalar RSUExampleScenario.node[117].veinsmobility 	minSpeed 	0.25344271769258
scalar RSUExampleScenario.node[117].veinsmobility 	maxSpeed 	13.999827994828
scalar RSUExampleScenario.node[117].veinsmobility 	totalDistance 	3410.2169444282
scalar RSUExampleScenario.node[117].veinsmobility 	totalCO2Emission 	733.77837358395
scalar RSUExampleScenario.node[118].veinsmobility 	startTime 	354.1
scalar RSUExampleScenario.node[118].veinsmobility 	totalTime 	311.5
scalar RSUExampleScenario.node[118].veinsmobility 	stopTime 	665.7
scalar RSUExampleScenario.node[118].veinsmobility 	minSpeed 	0.25800272196764
scalar RSUExampleScenario.node[118].veinsmobility 	maxSpeed 	13.99998092666
scalar RSUExampleScenario.node[118].veinsmobility 	totalDistance 	3413.9215330021
scalar RSUExampleScenario.node[118].veinsmobility 	totalCO2Emission 	730.49245461665
scalar RSUExampleScenario.node[119].veinsmobility 	startTime 	357.1
scalar RSUExampleScenario.node[119].veinsmobility 	totalTime 	312.2
scalar RSUExampleScenario.node[119].veinsmobility 	stopTime 	669.4
scalar RSUExampleScenario.node[119].veinsmobility 	minSpeed 	0.24750581946224
scalar RSUExampleScenario.node[119].veinsmobility 	maxSpeed 	13.999995613049
scalar RSUExampleScenario.node[119].veinsmobility 	totalDistance 	3409.5787071289
scalar RSUExampleScenario.node[119].veinsmobility 	totalCO2Emission 	737.70537688617
scalar RSUExampleScenario.node[120].veinsmobility 	startTime 	360.1
scalar RSUExampleScenario.node[120].veinsmobility 	totalTime 	312.9
scalar RSUExampleScenario.node[120].veinsmobility 	stopTime 	673.1
scalar RSUExampleScenario.node[120].veinsmobility 	minSpeed 	0.25491594489664
scalar RSUExampleScenario.node[120].veinsmobility 	maxSpeed 	13.999944318563
scalar RSUExampleScenario.node[120].veinsmobility 	totalDistance 	3413.9466079497
scalar RSUExampleScenario.node[120].veinsmobility 	totalCO2Emission 	729.9975048998
scalar RSUExampleScenario.node[121].veinsmobility 	startTime 	363.1
scalar RSUExampleScenario.node[121].veinsmobility 	totalTime 	313.6
scalar RSUExampleScenario.node[121].veinsmobility 	stopTime 	676.8
scalar RSUExampleScenario.node[121].veinsmobility 	minSpeed 	0.25168987026066
scalar RSUExampleScenario.node[121].veinsmobility 	maxSpeed 	13.9999914917
scalar RSUExampleScenario.node[121].veinsmobility 	totalDistance 	3410.0643736022
scalar RSUExampleScenario.node[121].veinsmobility 	totalCO2Emission 	737.78066837518
scalar RSUExampleScenario.node[122].veinsmobility 	startTime 	366.1
scalar RSUExampleScenario.node[122].veinsmobility 	totalTime 	314.2
scalar RSUExampleScenario.node[122].veinsmobility 	stopTime 	680.4
scalar RSUExampleScenario.node[122].veinsmobility 	minSpeed 	0.25201720302505
scalar RSUExampleScenario.node[122].veinsmobility 	maxSpeed 	13.999973619212
scalar RSUExampleScenario.node[122].veinsmobility 	totalDistance 	3413.6746145296
scalar RSUExampleScenario.node[122].veinsmobility 	totalCO2Emission 	733.6586208762
scalar RSUExampleScenario.node[123].veinsmobility 	startTime 	369.1
scalar RSUExampleScenario.node[123].veinsmobility 	totalTime 	314.9
scalar RSUExampleScenario.node[123].veinsmobility 	stopTime 	684.1
scalar RSUExampleScenario.node[123].veinsmobility 	minSpeed 	0.25337703790236
scalar RSUExampleScenario.node[123].veinsmobility 	maxSpeed 	13.999950694363
scalar RSUExampleScenario.node[123].veinsmobility 	totalDistance 	3410.1906848237
scalar RSUExampleScenario.node[123].veinsmobility 	totalCO2Emission 	735.70627304696
scalar RSUExampleScenario.node[124].veinsmobility 	startTime 	372.1
scalar RSUExampleScenario.node[124].veinsmobility 	totalTime 	315.7
scalar RSUExampleScenario.node[124].veinsmobility 	stopTime 	687.9
scalar RSUExampleScenario.node[124].veinsmobility 	minSpeed 	0.2474493386359
scalar RSUExampleScenario.node[124].veinsmobility 	maxSpeed 	13.999731078106
scalar RSUExampleScenario.node[124].veinsmobility 	totalDistance 	3414.2754017141
scalar RSUExampleScenario.node[124].veinsmobility 	totalCO2Emission 	732.17125307462
scalar RSUExampleScenario.node[125].veinsmobility 	startTime 	375.1
scalar RSUExampleScenario.node[125].veinsmobility 	totalTime 	316.4
scalar RSUExampleScenario.node[125].veinsmobility 	stopTime 	691.6
scalar RSUExampleScenario.node[125].veinsmobility 	minSpeed 	0.25431150593888
scalar RSUExampleScenario.node[125].veinsmobility 	maxSpeed 	13.999982467149
scalar RSUExampleScenario.node[125].veinsmobility 	totalDistance 	3409.8345217166
scalar RSUExampleScenario.node[125].veinsmobility 	totalCO2Emission 	739.22522916933
scalar RSUExampleScenario.node[126].veinsmobility 	startTime 	378.1
scalar RSUExampleScenario.node[126].veinsmobility 	totalTime 	317.1
scalar RSUExampleScenario.node[126].veinsmobility 	stopTime 	695.3
scalar RSUExampleScenario.node[126].veinsmobility 	minSpeed 	0.25367463222449
scalar RSUExampleScenario.node[126].veinsmobility 	maxSpeed 	13.999959114159
scalar RSUExampleScenario.node[126].veinsmobility 	totalDistance 	3413.6409400056
scalar RSUExampleScenario.node[126].veinsmobility 	totalCO2Emission 	739.40184606688
scalar RSUExampleScenario.node[127].veinsmobility 	startTime 	381.1
scalar RSUExampleScenario.node[127].veinsmobility 	totalTime 	317.7
scalar RSUExampleScenario.node[127].veinsmobility 	stopTime 	698.9
scalar RSUExampleScenario.node[127].veinsmobility 	minSpeed 	0.25255389013118
scalar RSUExampleScenario.node[127].veinsmobility 	maxSpeed 	13.999975202864
scalar RSUExampleScenario.node[127].veinsmobility 	totalDistance 	3409.4837431362
scalar RSUExampleScenario.node[127].veinsmobility 	totalCO2Emission 	737.50488923172
scalar RSUExampleScenario.node[128].veinsmobility 	startTime 	384.1
scalar RSUExampleScenario.node[128].veinsmobility 	totalTime 	318.4
scalar RSUExampleScenario.node[128].veinsmobility 	stopTime 	702.6
scalar RSUExampleScenario.node[128].veinsmobility 	minSpeed 	0.25382697768463
scalar RSUExampleScenario.node[128].veinsmobility 	maxSpeed 	13.999871724467
scalar RSUExampleScenario.node[128].veinsmobility 	totalDistance 	3414.1280140507
scalar RSUExampleScenario.node[128].veinsmobility 	totalCO2Emission 	741.96831980071
scalar RSUExampleScenario.node[129].veinsmobility 	startTime 	387.1
scalar RSUExampleScenario.node[129].veinsmobility 	totalTime 	319.1
scalar RSUExampleScenario.node[129].veinsmobility 	stopTime 	706.3
scalar RSUExampleScenario.node[129].veinsmobility 	minSpeed 	0.2562685949991
scalar RSUExampleScenario.node[129].veinsmobility 	maxSpeed 	13.999921772154
scalar RSUExampleScenario.node[129].veinsmobility 	totalDistance 	3409.9762626644
scalar RSUExampleScenario.node[129].veinsmobility 	totalCO2Emission 	739.97087313634
scalar RSUExampleScenario.node[130].veinsmobility 	startTime 	390.1
scalar RSUExampleScenario.node[130].veinsmobility 	totalTime 	319.8
scalar RSUExampleScenario.node[130].veinsmobility 	stopTime 	710
scalar RSUExampleScenario.node[130].veinsmobility 	minSpeed 	0.25761300788773
scalar RSUExampleScenario.node[130].veinsmobility 	maxSpeed 	13.999984988654
scalar RSUExampleScenario.node[130].veinsmobility 	totalDistance 	3413.95693991
scalar RSUExampleScenario.node[130].veinsmobility 	totalCO2Emission 	745.64825576947
scalar RSUExampleScenario.node[131].veinsmobility 	startTime 	393.1
scalar RSUExampleScenario.node[131].veinsmobility 	totalTime 	320.5
scalar RSUExampleScenario.node[131].veinsmobility 	stopTime 	713.7
scalar RSUExampleScenario.node[131].veinsmobility 	minSpeed 	0.25978021739353
scalar RSUExampleScenario.node[131].veinsmobility 	maxSpeed 	13.999989513415
scalar RSUExampleScenario.node[131].veinsmobility 	totalDistance 	3409.4555391625
scalar RSUExampleScenario.node[131].veinsmobility 	totalCO2Emission 	747.09767314207
scalar RSUExampleScenario.node[132].veinsmobility 	startTime 	396.1
scalar RSUExampleScenario.node[132].veinsmobility 	totalTime 	321.2
scalar RSUExampleScenario.node[132].veinsmobility 	stopTime 	717.4
scalar RSUExampleScenario.node[132].veinsmobility 	minSpeed 	0.2484082783917
scalar RSUExampleScenario.node[132].veinsmobility 	maxSpeed 	13.999889888465
scalar RSUExampleScenario.node[132].veinsmobility 	totalDistance 	3409.7310323179
scalar RSUExampleScenario.node[132].veinsmobility 	totalCO2Emission 	743.86877753291
scalar RSUExampleScenario.node[133].veinsmobility 	startTime 	399.1
scalar RSUExampleScenario.node[133].veinsmobility 	totalTime 	321.9
scalar RSUExampleScenario.node[133].veinsmobility 	stopTime 	721.1
scalar RSUExampleScenario.node[133].veinsmobility 	minSpeed 	0.2581049379413
scalar RSUExampleScenario.node[133].veinsmobility 	maxSpeed 	13.999972526508
scalar RSUExampleScenario.node[133].veinsmobility 	totalDistance 	3413.6382732532
scalar RSUExampleScenario.node[133].veinsmobility 	totalCO2Emission 	741.34075471619
scalar RSUExampleScenario.node[134].veinsmobility 	startTime 	402.1
scalar RSUExampleScenario.node[134].veinsmobility 	totalTime 	322.6
scalar RSUExampleScenario.node[134].veinsmobility 	stopTime 	724.8
scalar RSUExampleScenario.node[134].veinsmobility 	minSpeed 	0.25315008482267
scalar RSUExampleScenario.node[134].veinsmobility 	maxSpeed 	13.999974174085
scalar RSUExampleScenario.node[134].veinsmobility 	totalDistance 	3409.5338164651
scalar RSUExampleScenario.node[134].veinsmobility 	totalCO2Emission 	743.84580075039
scalar RSUExampleScenario.node[135].veinsmobility 	startTime 	405.1
scalar RSUExampleScenario.node[135].veinsmobility 	totalTime 	323.3
scalar RSUExampleScenario.node[135].veinsmobility 	stopTime 	728.5
scalar RSUExampleScenario.node[135].veinsmobility 	minSpeed 	0.25791271897405
scalar RSUExampleScenario.node[135].veinsmobility 	maxSpeed 	13.999951432841
scalar RSUExampleScenario.node[135].veinsmobility 	totalDistance 	3414.0523659989
scalar RSUExampleScenario.node[135].veinsmobility 	totalCO2Emission 	746.89431989893
scalar RSUExampleScenario.node[136].veinsmobility 	startTime 	408.1
scalar RSUExampleScenario.node[136].veinsmobility 	totalTime 	324.1
scalar RSUExampleScenario.node[136].veinsmobility 	stopTime 	732.3
scalar RSUExampleScenario.node[136].veinsmobility 	minSpeed 	0.25139441952622
scalar RSUExampleScenario.node[136].veinsmobility 	maxSpeed 	13.999810393783
scalar RSUExampleScenario.node[136].veinsmobility 	totalDistance 	3410.1454534982
scalar RSUExampleScenario.node[136].veinsmobility 	totalCO2Emission 	745.07149848106
scalar RSUExampleScenario.node[137].veinsmobility 	startTime 	411.1
scalar RSUExampleScenario.node[137].veinsmobility 	totalTime 	324.9
scalar RSUExampleScenario.node[137].veinsmobility 	stopTime 	736.1
scalar RSUExampleScenario.node[137].veinsmobility 	minSpeed 	0.25385301398323
scalar RSUExampleScenario.node[137].veinsmobility 	maxSpeed 	13.999973316623
scalar RSUExampleScenario.node[137].veinsmobility 	totalDistance 	3413.996942775
scalar RSUExampleScenario.node[137].veinsmobility 	totalCO2Emission 	745.66006302744
scalar RSUExampleScenario.node[138].veinsmobility 	startTime 	414.1
scalar RSUExampleScenario.node[138].veinsmobility 	totalTime 	325.6
scalar RSUExampleScenario.node[138].veinsmobility 	stopTime 	739.8
scalar RSUExampleScenario.node[138].veinsmobility 	minSpeed 	0.25232617624453
scalar RSUExampleScenario.node[138].veinsmobility 	maxSpeed 	13.999965940346
scalar RSUExampleScenario.node[138].veinsmobility 	totalDistance 	3409.732825598
scalar RSUExampleScenario.node[138].veinsmobility 	totalCO2Emission 	748.04151664181
scalar RSUExampleScenario.node[139].veinsmobility 	startTime 	417.1
scalar RSUExampleScenario.node[139].veinsmobility 	totalTime 	326.3
scalar RSUExampleScenario.node[139].veinsmobility 	stopTime 	743.5
scalar RSUExampleScenario.node[139].veinsmobility 	minSpeed 	0.25373052821588
scalar RSUExampleScenario.node[139].veinsmobility 	maxSpeed 	13.999977702182
scalar RSUExampleScenario.node[139].veinsmobility 	totalDistance 	3413.8740557641
scalar RSUExampleScenario.node[139].veinsmobility 	totalCO2Emission 	747.43810413631
scalar RSUExampleScenario.node[140].veinsmobility 	startTime 	420.1
scalar RSUExampleScenario.node[140].veinsmobility 	totalTime 	327
scalar RSUExampleScenario.node[140].veinsmobility 	stopTime 	747.2
scalar RSUExampleScenario.node[140].veinsmobility 	minSpeed 	0.2510889429641
scalar RSUExampleScenario.node[140].veinsmobility 	maxSpeed 	13.999895147588
scalar RSUExampleScenario.node[140].veinsmobility 	totalDistance 	3409.7385029867
scalar RSUExampleScenario.node[140].veinsmobility 	totalCO2Emission 	751.09248181047
scalar RSUExampleScenario.node[141].veinsmobility 	startTime 	423.1
scalar RSUExampleScenario.node[141].veinsmobility 	totalTime 	327.7
scalar RSUExampleScenario.node[141].veinsmobility 	stopTime 	750.9
scalar RSUExampleScenario.node[141].veinsmobility 	minSpeed 	0.2501389829109
scalar RSUExampleScenario.node[141].veinsmobility 	maxSpeed 	13.999990460984
scalar RSUExampleScenario.node[141].veinsmobility 	totalDistance 	3413.8382183696
scalar RSUExampleScenario.node[141].veinsmobility 	totalCO2Emission 	750.58561062345
scalar RSUExampleScenario.node[142].veinsmobility 	startTime 	426.1
scalar RSUExampleScenario.node[142].veinsmobility 	totalTime 	328.4
scalar RSUExampleScenario.node[142].veinsmobility 	stopTime 	754.6
scalar RSUExampleScenario.node[142].veinsmobility 	minSpeed 	0.25052537353896
scalar RSUExampleScenario.node[142].veinsmobility 	maxSpeed 	13.999969997981
scalar RSUExampleScenario.node[142].veinsmobility 	totalDistance 	3410.0447963575
scalar RSUExampleScenario.node[142].veinsmobility 	totalCO2Emission 	751.74168995604
scalar RSUExampleScenario.node[143].veinsmobility 	startTime 	429.1
scalar RSUExampleScenario.node[143].veinsmobility 	totalTime 	329.2
scalar RSUExampleScenario.node[143].veinsmobility 	stopTime 	758.4
scalar RSUExampleScenario.node[143].veinsmobility 	minSpeed 	0.25035001879651
scalar RSUExampleScenario.node[143].veinsmobility 	maxSpeed 	13.999996320079
scalar RSUExampleScenario.node[143].veinsmobility 	totalDistance 	3414.1618010762
scalar RSUExampleScenario.node[143].veinsmobility 	totalCO2Emission 	746.94594716537
scalar RSUExampleScenario.node[144].veinsmobility 	startTime 	432.1
scalar RSUExampleScenario.node[144].veinsmobility 	totalTime 	329.9
scalar RSUExampleScenario.node[144].veinsmobility 	stopTime 	762.1
scalar RSUExampleScenario.node[144].veinsmobility 	minSpeed 	0.25776973343384
scalar RSUExampleScenario.node[144].veinsmobility 	maxSpeed 	13.999863000871
scalar RSUExampleScenario.node[144].veinsmobility 	totalDistance 	3409.8102100123
scalar RSUExampleScenario.node[144].veinsmobility 	totalCO2Emission 	750.1995903683
scalar RSUExampleScenario.node[145].veinsmobility 	startTime 	435.1
scalar RSUExampleScenario.node[145].veinsmobility 	totalTime 	330.7
scalar RSUExampleScenario.node[145].veinsmobility 	stopTime 	765.9
scalar RSUExampleScenario.node[145].veinsmobility 	minSpeed 	0.25236656204937
scalar RSUExampleScenario.node[145].veinsmobility 	maxSpeed 	13.999957601153
scalar RSUExampleScenario.node[145].veinsmobility 	totalDistance 	3414.1544387421
scalar RSUExampleScenario.node[145].veinsmobility 	totalCO2Emission 	747.3390461653
scalar RSUExampleScenario.node[146].veinsmobility 	startTime 	438.1
scalar RSUExampleScenario.node[146].veinsmobility 	totalTime 	331.5
scalar RSUExampleScenario.node[146].veinsmobility 	stopTime 	769.7
scalar RSUExampleScenario.node[146].veinsmobility 	minSpeed 	0.24707634961768
scalar RSUExampleScenario.node[146].veinsmobility 	maxSpeed 	13.999873667913
scalar RSUExampleScenario.node[146].veinsmobility 	totalDistance 	3410.2291665225
scalar RSUExampleScenario.node[146].veinsmobility 	totalCO2Emission 	756.26915631605
scalar RSUExampleScenario.node[147].veinsmobility 	startTime 	441.1
scalar RSUExampleScenario.node[147].veinsmobility 	totalTime 	332.2
scalar RSUExampleScenario.node[147].veinsmobility 	stopTime 	773.4
scalar RSUExampleScenario.node[147].veinsmobility 	minSpeed 	0.25083658062946
scalar RSUExampleScenario.node[147].veinsmobility 	maxSpeed 	13.999999591534
scalar RSUExampleScenario.node[147].veinsmobility 	totalDistance 	3413.8652988123
scalar RSUExampleScenario.node[147].veinsmobility 	totalCO2Emission 	756.8963447612
scalar RSUExampleScenario.node[148].veinsmobility 	startTime 	444.1
scalar RSUExampleScenario.node[148].veinsmobility 	totalTime 	332.9
scalar RSUExampleScenario.node[148].veinsmobility 	stopTime 	777.1
scalar RSUExampleScenario.node[148].veinsmobility 	minSpeed 	0.25713738439861
scalar RSUExampleScenario.node[148].veinsmobility 	maxSpeed 	13.999939837086
scalar RSUExampleScenario.node[148].veinsmobility 	totalDistance 	3409.7189849483
scalar RSUExampleScenario.node[148].veinsmobility 	totalCO2Emission 	755.6350998232
scalar RSUExampleScenario.node[149].veinsmobility 	startTime 	447.1
scalar RSUExampleScenario.node[149].veinsmobility 	totalTime 	333.5
scalar RSUExampleScenario.node[149].veinsmobility 	stopTime 	780.7
scalar RSUExampleScenario.node[149].veinsmobility 	minSpeed 	0.24847520714486
scalar RSUExampleScenario.node[149].veinsmobility 	maxSpeed 	13.999934426441
scalar RSUExampleScenario.node[149].veinsmobility 	totalDistance 	3409.5677414509
scalar RSUExampleScenario.node[149].veinsmobility 	totalCO2Emission 	756.43291392534
scalar RSUExampleScenario.node[150].veinsmobility 	startTime 	450.1
scalar RSUExampleScenario.node[150].veinsmobility 	totalTime 	334.2
scalar RSUExampleScenario.node[150].veinsmobility 	stopTime 	784.4
scalar RSUExampleScenario.node[150].veinsmobility 	minSpeed 	0.24917932702973
scalar RSUExampleScenario.node[150].veinsmobility 	maxSpeed 	13.999790064383
scalar RSUExampleScenario.node[150].veinsmobility 	totalDistance 	3413.9879826695
scalar RSUExampleScenario.node[150].veinsmobility 	totalCO2Emission 	755.45433268285
scalar RSUExampleScenario.node[151].veinsmobility 	startTime 	453.1
scalar RSUExampleScenario.node[151].veinsmobility 	totalTime 	335
scalar RSUExampleScenario.node[151].veinsmobility 	stopTime 	788.2
scalar RSUExampleScenario.node[151].veinsmobility 	minSpeed 	0.25328533485602
scalar RSUExampleScenario.node[151].veinsmobility 	maxSpeed 	13.999933609508
scalar RSUExampleScenario.node[151].veinsmobility 	totalDistance 	3410.2640300505
scalar RSUExampleScenario.node[151].veinsmobility 	totalCO2Emission 	754.37569682426
scalar RSUExampleScenario.node[152].veinsmobility 	startTime 	456.1
scalar RSUExampleScenario.node[152].veinsmobility 	totalTime 	335.7
scalar RSUExampleScenario.node[152].veinsmobility 	stopTime 	791.9
scalar RSUExampleScenario.node[152].veinsmobility 	minSpeed 	0.25252400625125
scalar RSUExampleScenario.node[152].veinsmobility 	maxSpeed 	13.999986785755
scalar RSUExampleScenario.node[152].veinsmobility 	totalDistance 	3414.0466754851
[...]
scalar RSUExampleScenario.node[628].veinsmobility 	totalCO2Emission 	324.73752047783
scalar RSUExampleScenario.node[629].veinsmobility 	startTime 	1887.1
scalar RSUExampleScenario.node[629].veinsmobility 	totalTime 	112.8
scalar RSUExampleScenario.node[629].veinsmobility 	stopTime 	2000
scalar RSUExampleScenario.node[629].veinsmobility 	minSpeed 	0.25389688953524
scalar RSUExampleScenario.node[629].veinsmobility 	maxSpeed 	13.999883964052
scalar RSUExampleScenario.node[629].veinsmobility 	totalDistance 	1360.7060317822
scalar RSUExampleScenario.node[629].veinsmobility 	totalCO2Emission 	313.99365335027
scalar RSUExampleScenario.node[630].veinsmobility 	startTime 	1890.1
scalar RSUExampleScenario.node[630].veinsmobility 	totalTime 	109.8
scalar RSUExampleScenario.node[630].veinsmobility 	stopTime 	2000
scalar RSUExampleScenario.node[630].veinsmobility 	minSpeed 	0.25677246678923
scalar RSUExampleScenario.node[630].veinsmobility 	maxSpeed 	13.999869036761
scalar RSUExampleScenario.node[630].veinsmobility 	totalDistance 	1318.8412734971
scalar RSUExampleScenario.node[630].veinsmobility 	totalCO2Emission 	309.62413077776
scalar RSUExampleScenario.node[631].veinsmobility 	startTime 	1893.1
scalar RSUExampleScenario.node[631].veinsmobility 	totalTime 	106.8
scalar RSUExampleScenario.node[631].veinsmobility 	stopTime 	2000
scalar RSUExampleScenario.node[631].veinsmobility 	minSpeed 	0.2542307299797
scalar RSUExampleScenario.node[631].veinsmobility 	maxSpeed 	13.999934016764
scalar RSUExampleScenario.node[631].veinsmobility 	totalDistance 	1276.3954848322
scalar RSUExampleScenario.node[631].veinsmobility 	totalCO2Emission 	304.52167897251
scalar RSUExampleScenario.node[632].veinsmobility 	startTime 	1896.1
scalar RSUExampleScenario.node[632].veinsmobility 	totalTime 	103.8
scalar RSUExampleScenario.node[632].veinsmobility 	stopTime 	2000
scalar RSUExampleScenario.node[632].veinsmobility 	minSpeed 	0.25423299040785
scalar RSUExampleScenario.node[632].veinsmobility 	maxSpeed 	13.999921333783
scalar RSUExampleScenario.node[632].veinsmobility 	totalDistance 	1237.4152896757
scalar RSUExampleScenario.node[632].veinsmobility 	totalCO2Emission 	297.21026388971
scalar RSUExampleScenario.node[633].veinsmobility 	startTime 	1899.1
scalar RSUExampleScenario.node[633].veinsmobility 	totalTime 	100.8
scalar RSUExampleScenario.node[633].veinsmobility 	stopTime 	2000
scalar RSUExampleScenario.node[633].veinsmobility 	minSpeed 	0.25962863641791
scalar RSUExampleScenario.node[633].veinsmobility 	maxSpeed 	13.999548569247
scalar RSUExampleScenario.node[633].veinsmobility 	totalDistance 	1196.3676464978
scalar RSUExampleScenario.node[633].veinsmobility 	totalCO2Emission 	289.18600299519
scalar RSUExampleScenario.node[634].veinsmobility 	startTime 	1902.1
scalar RSUExampleScenario.node[634].veinsmobility 	totalTime 	97.8
scalar RSUExampleScenario.node[634].veinsmobility 	stopTime 	2000
scalar RSUExampleScenario.node[634].veinsmobility 	minSpeed 	0.24824885858037
scalar RSUExampleScenario.node[634].veinsmobility 	maxSpeed 	13.999965876904
scalar RSUExampleScenario.node[634].veinsmobility 	totalDistance 	1153.1578666625
scalar RSUExampleScenario.node[634].veinsmobility 	totalCO2Emission 	281.73803982532
scalar RSUExampleScenario.node[635].veinsmobility 	startTime 	1905.1
scalar RSUExampleScenario.node[635].veinsmobility 	totalTime 	94.8
scalar RSUExampleScenario.node[635].veinsmobility 	stopTime 	2000
scalar RSUExampleScenario.node[635].veinsmobility 	minSpeed 	0.25500183022465
scalar RSUExampleScenario.node[635].veinsmobility 	maxSpeed 	13.999861273749
scalar RSUExampleScenario.node[635].veinsmobility 	totalDistance 	1111.3658335117
scalar RSUExampleScenario.node[635].veinsmobility 	totalCO2Emission 	275.32324837907
scalar RSUExampleScenario.node[636].veinsmobility 	startTime 	1908.1
scalar RSUExampleScenario.node[636].veinsmobility 	totalTime 	91.8
scalar RSUExampleScenario.node[636].veinsmobility 	stopTime 	2000
scalar RSUExampleScenario.node[636].veinsmobility 	minSpeed 	0.25268689602963
scalar RSUExampleScenario.node[636].veinsmobility 	maxSpeed 	13.999995571794
scalar RSUExampleScenario.node[636].veinsmobility 	totalDistance 	1072.3652530382
scalar RSUExampleScenario.node[636].veinsmobility 	totalCO2Emission 	266.96111798727
scalar RSUExampleScenario.node[637].veinsmobility 	startTime 	1911.1
scalar RSUExampleScenario.node[637].veinsmobility 	totalTime 	88.8
scalar RSUExampleScenario.node[637].veinsmobility 	stopTime 	2000
scalar RSUExampleScenario.node[637].veinsmobility 	minSpeed 	0.24918226472219
scalar RSUExampleScenario.node[637].veinsmobility 	maxSpeed 	13.999965638241
scalar RSUExampleScenario.node[637].veinsmobility 	totalDistance 	1029.7673666579
scalar RSUExampleScenario.node[637].veinsmobility 	totalCO2Emission 	262.07795499069
scalar RSUExampleScenario.node[638].veinsmobility 	startTime 	1914.1
scalar RSUExampleScenario.node[638].veinsmobility 	totalTime 	85.8
scalar RSUExampleScenario.node[638].veinsmobility 	stopTime 	2000
scalar RSUExampleScenario.node[638].veinsmobility 	minSpeed 	0.24755980923958
scalar RSUExampleScenario.node[638].veinsmobility 	maxSpeed 	13.999925788685
scalar RSUExampleScenario.node[638].veinsmobility 	totalDistance 	988.8120995995
scalar RSUExampleScenario.node[638].veinsmobility 	totalCO2Emission 	253.03245458602
scalar RSUExampleScenario.node[639].veinsmobility 	startTime 	1917.1
scalar RSUExampleScenario.node[639].veinsmobility 	totalTime 	82.8
scalar RSUExampleScenario.node[639].veinsmobility 	stopTime 	2000
scalar RSUExampleScenario.node[639].veinsmobility 	minSpeed 	0.25071684193285
scalar RSUExampleScenario.node[639].veinsmobility 	maxSpeed 	13.999295590136
scalar RSUExampleScenario.node[639].veinsmobility 	totalDistance 	954.00453969697
scalar RSUExampleScenario.node[639].veinsmobility 	totalCO2Emission 	233.19778823737
scalar RSUExampleScenario.node[640].veinsmobility 	startTime 	1920.1
scalar RSUExampleScenario.node[640].veinsmobility 	totalTime 	79.8
scalar RSUExampleScenario.node[640].veinsmobility 	stopTime 	2000
scalar RSUExampleScenario.node[640].veinsmobility 	minSpeed 	0.25931078007491
scalar RSUExampleScenario.node[640].veinsmobility 	maxSpeed 	13.99888618445
scalar RSUExampleScenario.node[640].veinsmobility 	totalDistance 	937.41522509648
scalar RSUExampleScenario.node[640].veinsmobility 	totalCO2Emission 	222.30472948911
scalar RSUExampleScenario.node[641].veinsmobility 	startTime 	1923.1
scalar RSUExampleScenario.node[641].veinsmobility 	totalTime 	76.8
scalar RSUExampleScenario.node[641].veinsmobility 	stopTime 	2000
scalar RSUExampleScenario.node[641].veinsmobility 	minSpeed 	0.25818388604722
scalar RSUExampleScenario.node[641].veinsmobility 	maxSpeed 	13.999979562543
scalar RSUExampleScenario.node[641].veinsmobility 	totalDistance 	912.09572678549
scalar RSUExampleScenario.node[641].veinsmobility 	totalCO2Emission 	219.44666733914
scalar RSUExampleScenario.node[642].veinsmobility 	startTime 	1926.1
scalar RSUExampleScenario.node[642].veinsmobility 	totalTime 	73.8
scalar RSUExampleScenario.node[642].veinsmobility 	stopTime 	2000
scalar RSUExampleScenario.node[642].veinsmobility 	minSpeed 	0.25165518690157
scalar RSUExampleScenario.node[642].veinsmobility 	maxSpeed 	13.999818613145
scalar RSUExampleScenario.node[642].veinsmobility 	totalDistance 	871.56081526949
scalar RSUExampleScenario.node[642].veinsmobility 	totalCO2Emission 	214.38850352339
scalar RSUExampleScenario.node[643].veinsmobility 	startTime 	1929.1
scalar RSUExampleScenario.node[643].veinsmobility 	totalTime 	70.8
scalar RSUExampleScenario.node[643].veinsmobility 	stopTime 	2000
scalar RSUExampleScenario.node[643].veinsmobility 	minSpeed 	0.25480685067805
scalar RSUExampleScenario.node[643].veinsmobility 	maxSpeed 	13.999576980229
scalar RSUExampleScenario.node[643].veinsmobility 	totalDistance 	832.06075411449
scalar RSUExampleScenario.node[643].veinsmobility 	totalCO2Emission 	207.59254287325
scalar RSUExampleScenario.node[644].veinsmobility 	startTime 	1932.1
scalar RSUExampleScenario.node[644].veinsmobility 	totalTime 	67.8
scalar RSUExampleScenario.node[644].veinsmobility 	stopTime 	2000
scalar RSUExampleScenario.node[644].veinsmobility 	minSpeed 	0.2498274557062
scalar RSUExampleScenario.node[644].veinsmobility 	maxSpeed 	13.999774639455
scalar RSUExampleScenario.node[644].veinsmobility 	totalDistance 	790.35318559188
scalar RSUExampleScenario.node[644].veinsmobility 	totalCO2Emission 	202.04854491272
scalar RSUExampleScenario.node[645].veinsmobility 	startTime 	1935.1
scalar RSUExampleScenario.node[645].veinsmobility 	totalTime 	64.8
scalar RSUExampleScenario.node[645].veinsmobility 	stopTime 	2000
scalar RSUExampleScenario.node[645].veinsmobility 	minSpeed 	0.25840530000115
scalar RSUExampleScenario.node[645].veinsmobility 	maxSpeed 	13.999876178824
scalar RSUExampleScenario.node[645].veinsmobility 	totalDistance 	747.95378097627
scalar RSUExampleScenario.node[645].veinsmobility 	totalCO2Emission 	192.35017746581
scalar RSUExampleScenario.node[646].veinsmobility 	startTime 	1938.1
scalar RSUExampleScenario.node[646].veinsmobility 	totalTime 	61.8
scalar RSUExampleScenario.node[646].veinsmobility 	stopTime 	2000
scalar RSUExampleScenario.node[646].veinsmobility 	minSpeed 	0.24722577917832
scalar RSUExampleScenario.node[646].veinsmobility 	maxSpeed 	13.999448263813
scalar RSUExampleScenario.node[646].veinsmobility 	totalDistance 	705.85754268723
scalar RSUExampleScenario.node[646].veinsmobility 	totalCO2Emission 	184.79883186409
scalar RSUExampleScenario.node[647].veinsmobility 	startTime 	1941.1
scalar RSUExampleScenario.node[647].veinsmobility 	totalTime 	58.8
scalar RSUExampleScenario.node[647].veinsmobility 	stopTime 	2000
scalar RSUExampleScenario.node[647].veinsmobility 	minSpeed 	0.25527794193313
scalar RSUExampleScenario.node[647].veinsmobility 	maxSpeed 	13.999230196974
scalar RSUExampleScenario.node[647].veinsmobility 	totalDistance 	664.65480137865
scalar RSUExampleScenario.node[647].veinsmobility 	totalCO2Emission 	179.45670360627
scalar RSUExampleScenario.node[648].veinsmobility 	startTime 	1944.1
scalar RSUExampleScenario.node[648].veinsmobility 	totalTime 	55.8
scalar RSUExampleScenario.node[648].veinsmobility 	stopTime 	2000
scalar RSUExampleScenario.node[648].veinsmobility 	minSpeed 	0.24763896266534
scalar RSUExampleScenario.node[648].veinsmobility 	maxSpeed 	13.999151010269
scalar RSUExampleScenario.node[648].veinsmobility 	totalDistance 	623.06046494795
scalar RSUExampleScenario.node[648].veinsmobility 	totalCO2Emission 	171.44724478503
scalar RSUExampleScenario.node[649].veinsmobility 	startTime 	1947.1
scalar RSUExampleScenario.node[649].veinsmobility 	totalTime 	52.8
scalar RSUExampleScenario.node[649].veinsmobility 	stopTime 	2000
scalar RSUExampleScenario.node[649].veinsmobility 	minSpeed 	0.25642500140565
scalar RSUExampleScenario.node[649].veinsmobility 	maxSpeed 	13.999866667807
scalar RSUExampleScenario.node[649].veinsmobility 	totalDistance 	580.38857400953
scalar RSUExampleScenario.node[649].veinsmobility 	totalCO2Emission 	163.96072175826
scalar RSUExampleScenario.node[650].veinsmobility 	startTime 	1950.1
scalar RSUExampleScenario.node[650].veinsmobility 	totalTime 	49.8
scalar RSUExampleScenario.node[650].veinsmobility 	stopTime 	2000
scalar RSUExampleScenario.node[650].veinsmobility 	minSpeed 	0.25706217352906
scalar RSUExampleScenario.node[650].veinsmobility 	maxSpeed 	13.999585963101
scalar RSUExampleScenario.node[650].veinsmobility 	totalDistance 	539.37113144309
scalar RSUExampleScenario.node[650].veinsmobility 	totalCO2Emission 	157.97998688725
scalar RSUExampleScenario.node[651].veinsmobility 	startTime 	1953.1
scalar RSUExampleScenario.node[651].veinsmobility 	totalTime 	46.8
scalar RSUExampleScenario.node[651].veinsmobility 	stopTime 	2000
scalar RSUExampleScenario.node[651].veinsmobility 	minSpeed 	0.25565284184786
scalar RSUExampleScenario.node[651].veinsmobility 	maxSpeed 	13.999837226835
scalar RSUExampleScenario.node[651].veinsmobility 	totalDistance 	496.02297704309
scalar RSUExampleScenario.node[651].veinsmobility 	totalCO2Emission 	150.80221297674
scalar RSUExampleScenario.node[652].veinsmobility 	startTime 	1956.1
scalar RSUExampleScenario.node[652].veinsmobility 	totalTime 	43.8
scalar RSUExampleScenario.node[652].veinsmobility 	stopTime 	2000
scalar RSUExampleScenario.node[652].veinsmobility 	minSpeed 	0.25247552336124
scalar RSUExampleScenario.node[652].veinsmobility 	maxSpeed 	13.999765700169
scalar RSUExampleScenario.node[652].veinsmobility 	totalDistance 	454.62669231372
scalar RSUExampleScenario.node[652].veinsmobility 	totalCO2Emission 	143.47676136906
scalar RSUExampleScenario.node[653].veinsmobility 	startTime 	1959.1
scalar RSUExampleScenario.node[653].veinsmobility 	totalTime 	40.8
scalar RSUExampleScenario.node[653].veinsmobility 	stopTime 	2000
scalar RSUExampleScenario.node[653].veinsmobility 	minSpeed 	0.25112328492454
scalar RSUExampleScenario.node[653].veinsmobility 	maxSpeed 	13.999772354616
scalar RSUExampleScenario.node[653].veinsmobility 	totalDistance 	411.98963284374
scalar RSUExampleScenario.node[653].veinsmobility 	totalCO2Emission 	137.25254983774
scalar RSUExampleScenario.node[654].veinsmobility 	startTime 	1962.1
scalar RSUExampleScenario.node[654].veinsmobility 	totalTime 	37.8
scalar RSUExampleScenario.node[654].veinsmobility 	stopTime 	2000
scalar RSUExampleScenario.node[654].veinsmobility 	minSpeed 	0.25491833499284
scalar RSUExampleScenario.node[654].veinsmobility 	maxSpeed 	13.997328795837
scalar RSUExampleScenario.node[654].veinsmobility 	totalDistance 	371.02237483104
scalar RSUExampleScenario.node[654].veinsmobility 	totalCO2Emission 	128.52049009277
scalar RSUExampleScenario.node[655].veinsmobility 	startTime 	1965.1
scalar RSUExampleScenario.node[655].veinsmobility 	totalTime 	34.8
scalar RSUExampleScenario.node[655].veinsmobility 	stopTime 	2000
scalar RSUExampleScenario.node[655].veinsmobility 	minSpeed 	0.25898962924047
scalar RSUExampleScenario.node[655].veinsmobility 	maxSpeed 	13.993050834769
scalar RSUExampleScenario.node[655].veinsmobility 	totalDistance 	328.81552960396
scalar RSUExampleScenario.node[655].veinsmobility 	totalCO2Emission 	122.41525193614
scalar RSUExampleScenario.node[656].veinsmobility 	startTime 	1968.1
scalar RSUExampleScenario.node[656].veinsmobility 	totalTime 	31.8
scalar RSUExampleScenario.node[656].veinsmobility 	stopTime 	2000
scalar RSUExampleScenario.node[656].veinsmobility 	minSpeed 	0.25568451569765
scalar RSUExampleScenario.node[656].veinsmobility 	maxSpeed 	13.954987578068
scalar RSUExampleScenario.node[656].veinsmobility 	totalDistance 	286.52009580149
scalar RSUExampleScenario.node[656].veinsmobility 	totalCO2Emission 	114.6135194258
scalar RSUExampleScenario.node[657].veinsmobility 	startTime 	1971.1
scalar RSUExampleScenario.node[657].veinsmobility 	totalTime 	28.8
scalar RSUExampleScenario.node[657].veinsmobility 	stopTime 	2000
scalar RSUExampleScenario.node[657].veinsmobility 	minSpeed 	0.24791076819017
scalar RSUExampleScenario.node[657].veinsmobility 	maxSpeed 	13.888695585716
scalar RSUExampleScenario.node[657].veinsmobility 	totalDistance 	248.76216080497
scalar RSUExampleScenario.node[657].veinsmobility 	totalCO2Emission 	99.649475187517
scalar RSUExampleScenario.node[658].veinsmobility 	startTime 	1974.1
scalar RSUExampleScenario.node[658].veinsmobility 	totalTime 	25.8
scalar RSUExampleScenario.node[658].veinsmobility 	stopTime 	2000
scalar RSUExampleScenario.node[658].veinsmobility 	minSpeed 	0.25171050064592
scalar RSUExampleScenario.node[658].veinsmobility 	maxSpeed 	13.888979931236
scalar RSUExampleScenario.node[658].veinsmobility 	totalDistance 	225.63966615857
scalar RSUExampleScenario.node[658].veinsmobility 	totalCO2Emission 	82.67042288114
scalar RSUExampleScenario.node[659].veinsmobility 	startTime 	1977.1
scalar RSUExampleScenario.node[659].veinsmobility 	totalTime 	22.8
scalar RSUExampleScenario.node[659].veinsmobility 	stopTime 	2000
scalar RSUExampleScenario.node[659].veinsmobility 	minSpeed 	0.25402100410755
scalar RSUExampleScenario.node[659].veinsmobility 	maxSpeed 	13.866834082182
scalar RSUExampleScenario.node[659].veinsmobility 	totalDistance 	207.38982461481
scalar RSUExampleScenario.node[659].veinsmobility 	totalCO2Emission 	77.80963496614
scalar RSUExampleScenario.node[660].veinsmobility 	startTime 	1980.1
scalar RSUExampleScenario.node[660].veinsmobility 	totalTime 	19.8
scalar RSUExampleScenario.node[660].veinsmobility 	stopTime 	2000
scalar RSUExampleScenario.node[660].veinsmobility 	minSpeed 	0.25558065923257
scalar RSUExampleScenario.node[660].veinsmobility 	maxSpeed 	13.889124050091
scalar RSUExampleScenario.node[660].veinsmobility 	totalDistance 	176.56114389714
scalar RSUExampleScenario.node[660].veinsmobility 	totalCO2Emission 	75.597628795697
scalar RSUExampleScenario.node[661].veinsmobility 	startTime 	1983.1
scalar RSUExampleScenario.node[661].veinsmobility 	totalTime 	16.8
scalar RSUExampleScenario.node[661].veinsmobility 	stopTime 	2000
scalar RSUExampleScenario.node[661].veinsmobility 	minSpeed 	0.25373655487108
scalar RSUExampleScenario.node[661].veinsmobility 	maxSpeed 	13.871231992091
scalar RSUExampleScenario.node[661].veinsmobility 	totalDistance 	136.79330349098
scalar RSUExampleScenario.node[661].veinsmobility 	totalCO2Emission 	56.91755783988
scalar RSUExampleScenario.node[662].veinsmobility 	startTime 	1986.1
scalar RSUExampleScenario.node[662].veinsmobility 	totalTime 	13.8
scalar RSUExampleScenario.node[662].veinsmobility 	stopTime 	2000
scalar RSUExampleScenario.node[662].veinsmobility 	minSpeed 	0.25750064248405
scalar RSUExampleScenario.node[662].veinsmobility 	maxSpeed 	13.874767947916
scalar RSUExampleScenario.node[662].veinsmobility 	totalDistance 	116.79866585431
scalar RSUExampleScenario.node[662].veinsmobility 	totalCO2Emission 	43.2619673839
scalar RSUExampleScenario.node[663].veinsmobility 	startTime 	1989.1
scalar RSUExampleScenario.node[663].veinsmobility 	totalTime 	10.8
scalar RSUExampleScenario.node[663].veinsmobility 	stopTime 	2000
scalar RSUExampleScenario.node[663].veinsmobility 	minSpeed 	0.25128183505801
scalar RSUExampleScenario.node[663].veinsmobility 	maxSpeed 	13.885631751444
scalar RSUExampleScenario.node[663].veinsmobility 	totalDistance 	96.520420355422
scalar RSUExampleScenario.node[663].veinsmobility 	totalCO2Emission 	39.459709200218
scalar RSUExampleScenario.node[664].veinsmobility 	startTime 	1992.1
scalar RSUExampleScenario.node[664].veinsmobility 	totalTime 	7.8
scalar RSUExampleScenario.node[664].veinsmobility 	stopTime 	2000
scalar RSUExampleScenario.node[664].veinsmobility 	minSpeed 	0.25853581304662
scalar RSUExampleScenario.node[664].veinsmobility 	maxSpeed 	13.884397623353
scalar RSUExampleScenario.node[664].veinsmobility 	totalDistance 	60.389013284933
scalar RSUExampleScenario.node[664].veinsmobility 	totalCO2Emission 	35.938094260959
scalar RSUExampleScenario.node[665].veinsmobility 	startTime 	1995.1
scalar RSUExampleScenario.node[665].veinsmobility 	totalTime 	4.8
scalar RSUExampleScenario.node[665].veinsmobility 	stopTime 	2000
scalar RSUExampleScenario.node[665].veinsmobility 	minSpeed 	0.25320421533706
scalar RSUExampleScenario.node[665].veinsmobility 	maxSpeed 	9.6536431910926
scalar RSUExampleScenario.node[665].veinsmobility 	totalDistance 	24.064485788997
scalar RSUExampleScenario.node[665].veinsmobility 	totalCO2Emission 	17.938307725327
scalar RSUExampleScenario.node[666].veinsmobility 	startTime 	1998.1
scalar RSUExampleScenario.node[666].veinsmobility 	totalTime 	1.8
scalar RSUExampleScenario.node[666].veinsmobility 	stopTime 	2000
scalar RSUExampleScenario.node[666].veinsmobility 	minSpeed 	0.24886871095793
scalar RSUExampleScenario.node[666].veinsmobility 	maxSpeed 	4.074953858687
scalar RSUExampleScenario.node[666].veinsmobility 	totalDistance 	4.0045617729398
scalar RSUExampleScenario.node[666].veinsmobility 	totalCO2Emission 	4.1818089651855
