version 2
run statisticLeach-929-20150323-18:49:58-3380
attr c 9
attr configname statisticLeach
attr datetime 20150323-18:49:58
attr experiment statisticLeach
attr inifile omnetpp.ini
attr iterationvars "$p=1/2, $c=9"
attr iterationvars2 "$p=1/2, $c=9, $repetition=9"
attr measurement "$p=1/2, $c=9"
attr network RSUExampleScenario
attr p 1/2
attr processid 3380
attr repetition 9
attr replication #9
attr resultdir results
attr runnumber 929
attr seedset 929

scalar . 	c 	9
scalar RSUExampleScenario.node[0].appl 	meanClusterNodes 	0.57894736842105
scalar RSUExampleScenario.node[0].appl 	meanClusterHeadUtility 	2.0658834856712
scalar RSUExampleScenario.node[0].appl 	NumberofCH 	0.51351351351351
scalar RSUExampleScenario.node[0].appl 	NumberofON 	0.35135135135135
scalar RSUExampleScenario.node[0].appl 	NumberofFN 	0.13513513513514
scalar RSUExampleScenario.node[0].veinsmobility 	startTime 	0.1
scalar RSUExampleScenario.node[0].veinsmobility 	totalTime 	449.9
scalar RSUExampleScenario.node[0].veinsmobility 	stopTime 	450
scalar RSUExampleScenario.node[0].veinsmobility 	minSpeed 	0
scalar RSUExampleScenario.node[0].veinsmobility 	maxSpeed 	13.999999936589
scalar RSUExampleScenario.node[0].veinsmobility 	totalDistance 	3136.0490115141
scalar RSUExampleScenario.node[0].veinsmobility 	totalCO2Emission 	837.7576342046
scalar RSUExampleScenario.node[1].appl 	meanClusterNodes 	1.1666666666667
scalar RSUExampleScenario.node[1].appl 	meanClusterHeadUtility 	2.0053407049604
scalar RSUExampleScenario.node[1].appl 	NumberofCH 	0.48648648648649
scalar RSUExampleScenario.node[1].appl 	NumberofON 	0.45945945945946
scalar RSUExampleScenario.node[1].appl 	NumberofFN 	0.054054054054054
scalar RSUExampleScenario.node[1].veinsmobility 	startTime 	2.5
scalar RSUExampleScenario.node[1].veinsmobility 	totalTime 	447.5
scalar RSUExampleScenario.node[1].veinsmobility 	stopTime 	450
scalar RSUExampleScenario.node[1].veinsmobility 	minSpeed 	0
scalar RSUExampleScenario.node[1].veinsmobility 	maxSpeed 	13.999835464512
scalar RSUExampleScenario.node[1].veinsmobility 	totalDistance 	3081.3336879245
scalar RSUExampleScenario.node[1].veinsmobility 	totalCO2Emission 	825.86483844357
scalar RSUExampleScenario.node[10].appl 	meanClusterNodes 	1.8333333333333
scalar RSUExampleScenario.node[10].appl 	meanClusterHeadUtility 	2.0817392126549
scalar RSUExampleScenario.node[10].appl 	NumberofCH 	0.48648648648649
scalar RSUExampleScenario.node[10].appl 	NumberofON 	0.37837837837838
scalar RSUExampleScenario.node[10].appl 	NumberofFN 	0.13513513513514
scalar RSUExampleScenario.node[10].veinsmobility 	startTime 	24.2
scalar RSUExampleScenario.node[10].veinsmobility 	totalTime 	425.8
scalar RSUExampleScenario.node[10].veinsmobility 	stopTime 	450
scalar RSUExampleScenario.node[10].veinsmobility 	minSpeed 	0
scalar RSUExampleScenario.node[10].veinsmobility 	maxSpeed 	13.999997566394
scalar RSUExampleScenario.node[10].veinsmobility 	totalDistance 	2792.8665698762
scalar RSUExampleScenario.node[10].veinsmobility 	totalCO2Emission 	762.75967251916
scalar RSUExampleScenario.node[11].appl 	meanClusterNodes 	1
scalar RSUExampleScenario.node[11].appl 	meanClusterHeadUtility 	1.9259962163662
scalar RSUExampleScenario.node[11].appl 	NumberofCH 	0.48648648648649
scalar RSUExampleScenario.node[11].appl 	NumberofON 	0.35135135135135
scalar RSUExampleScenario.node[11].appl 	NumberofFN 	0.16216216216216
scalar RSUExampleScenario.node[11].veinsmobility 	startTime 	26.6
scalar RSUExampleScenario.node[11].veinsmobility 	totalTime 	423.4
scalar RSUExampleScenario.node[11].veinsmobility 	stopTime 	450
scalar RSUExampleScenario.node[11].veinsmobility 	minSpeed 	0
scalar RSUExampleScenario.node[11].veinsmobility 	maxSpeed 	13.999957926201
scalar RSUExampleScenario.node[11].veinsmobility 	totalDistance 	2751.6093070104
scalar RSUExampleScenario.node[11].veinsmobility 	totalCO2Emission 	754.38200512657
scalar RSUExampleScenario.node[12].appl 	meanClusterNodes 	0.94444444444444
scalar RSUExampleScenario.node[12].appl 	meanClusterHeadUtility 	1.8846611309087
scalar RSUExampleScenario.node[12].appl 	NumberofCH 	0.48648648648649
scalar RSUExampleScenario.node[12].appl 	NumberofON 	0.51351351351351
scalar RSUExampleScenario.node[12].appl 	NumberofFN 	0
scalar RSUExampleScenario.node[12].veinsmobility 	startTime 	29
scalar RSUExampleScenario.node[12].veinsmobility 	totalTime 	421
scalar RSUExampleScenario.node[12].veinsmobility 	stopTime 	450
scalar RSUExampleScenario.node[12].veinsmobility 	minSpeed 	0
scalar RSUExampleScenario.node[12].veinsmobility 	maxSpeed 	13.999952889851
scalar RSUExampleScenario.node[12].veinsmobility 	totalDistance 	2721.6436441774
scalar RSUExampleScenario.node[12].veinsmobility 	totalCO2Emission 	747.1401822906
scalar RSUExampleScenario.node[13].appl 	meanClusterNodes 	1
scalar RSUExampleScenario.node[13].appl 	meanClusterHeadUtility 	1.8878781807472
scalar RSUExampleScenario.node[13].appl 	NumberofCH 	0.51351351351351
scalar RSUExampleScenario.node[13].appl 	NumberofON 	0.48648648648649
scalar RSUExampleScenario.node[13].appl 	NumberofFN 	0
scalar RSUExampleScenario.node[13].veinsmobility 	startTime 	31.4
scalar RSUExampleScenario.node[13].veinsmobility 	totalTime 	418.6
scalar RSUExampleScenario.node[13].veinsmobility 	stopTime 	450
scalar RSUExampleScenario.node[13].veinsmobility 	minSpeed 	0
scalar RSUExampleScenario.node[13].veinsmobility 	maxSpeed 	13.999927224841
scalar RSUExampleScenario.node[13].veinsmobility 	totalDistance 	2678.2517661189
scalar RSUExampleScenario.node[13].veinsmobility 	totalCO2Emission 	740.88181932857
scalar RSUExampleScenario.node[14].appl 	meanClusterNodes 	0.57894736842105
scalar RSUExampleScenario.node[14].appl 	meanClusterHeadUtility 	1.8574725235733
scalar RSUExampleScenario.node[14].appl 	NumberofCH 	0.51351351351351
scalar RSUExampleScenario.node[14].appl 	NumberofON 	0.48648648648649
scalar RSUExampleScenario.node[14].appl 	NumberofFN 	0
scalar RSUExampleScenario.node[14].veinsmobility 	startTime 	33.8
scalar RSUExampleScenario.node[14].veinsmobility 	totalTime 	416.2
scalar RSUExampleScenario.node[14].veinsmobility 	stopTime 	450
scalar RSUExampleScenario.node[14].veinsmobility 	minSpeed 	0
scalar RSUExampleScenario.node[14].veinsmobility 	maxSpeed 	13.999953214687
scalar RSUExampleScenario.node[14].veinsmobility 	totalDistance 	2652.2551009497
scalar RSUExampleScenario.node[14].veinsmobility 	totalCO2Emission 	734.03195045794
scalar RSUExampleScenario.node[15].appl 	meanClusterNodes 	1.1052631578947
scalar RSUExampleScenario.node[15].appl 	meanClusterHeadUtility 	1.8642302819585
scalar RSUExampleScenario.node[15].appl 	NumberofCH 	0.51351351351351
scalar RSUExampleScenario.node[15].appl 	NumberofON 	0.48648648648649
scalar RSUExampleScenario.node[15].appl 	NumberofFN 	0
scalar RSUExampleScenario.node[15].veinsmobility 	startTime 	36.2
scalar RSUExampleScenario.node[15].veinsmobility 	totalTime 	413.8
scalar RSUExampleScenario.node[15].veinsmobility 	stopTime 	450
scalar RSUExampleScenario.node[15].veinsmobility 	minSpeed 	0
scalar RSUExampleScenario.node[15].veinsmobility 	maxSpeed 	13.999980124801
scalar RSUExampleScenario.node[15].veinsmobility 	totalDistance 	2614.1882651007
scalar RSUExampleScenario.node[15].veinsmobility 	totalCO2Emission 	729.69285950363
scalar RSUExampleScenario.node[16].appl 	meanClusterNodes 	0.77777777777778
scalar RSUExampleScenario.node[16].appl 	meanClusterHeadUtility 	1.8910058749014
scalar RSUExampleScenario.node[16].appl 	NumberofCH 	0.48648648648649
scalar RSUExampleScenario.node[16].appl 	NumberofON 	0.40540540540541
scalar RSUExampleScenario.node[16].appl 	NumberofFN 	0.10810810810811
scalar RSUExampleScenario.node[16].veinsmobility 	startTime 	38.6
scalar RSUExampleScenario.node[16].veinsmobility 	totalTime 	411.4
scalar RSUExampleScenario.node[16].veinsmobility 	stopTime 	450
scalar RSUExampleScenario.node[16].veinsmobility 	minSpeed 	0
scalar RSUExampleScenario.node[16].veinsmobility 	maxSpeed 	13.999931061883
scalar RSUExampleScenario.node[16].veinsmobility 	totalDistance 	2582.8993856047
scalar RSUExampleScenario.node[16].veinsmobility 	totalCO2Emission 	724.21828968289
scalar RSUExampleScenario.node[17].appl 	meanClusterNodes 	1.1111111111111
scalar RSUExampleScenario.node[17].appl 	meanClusterHeadUtility 	1.979919234671
scalar RSUExampleScenario.node[17].appl 	NumberofCH 	0.48648648648649
scalar RSUExampleScenario.node[17].appl 	NumberofON 	0.51351351351351
scalar RSUExampleScenario.node[17].appl 	NumberofFN 	0
scalar RSUExampleScenario.node[17].veinsmobility 	startTime 	41
scalar RSUExampleScenario.node[17].veinsmobility 	totalTime 	409
scalar RSUExampleScenario.node[17].veinsmobility 	stopTime 	450
scalar RSUExampleScenario.node[17].veinsmobility 	minSpeed 	0
scalar RSUExampleScenario.node[17].veinsmobility 	maxSpeed 	13.999970463745
scalar RSUExampleScenario.node[17].veinsmobility 	totalDistance 	2539.8873535975
scalar RSUExampleScenario.node[17].veinsmobility 	totalCO2Emission 	717.47135259723
scalar RSUExampleScenario.node[18].appl 	meanClusterNodes 	1.1176470588235
scalar RSUExampleScenario.node[18].appl 	meanClusterHeadUtility 	1.8581014151582
scalar RSUExampleScenario.node[18].appl 	NumberofCH 	0.45945945945946
scalar RSUExampleScenario.node[18].appl 	NumberofON 	0.54054054054054
scalar RSUExampleScenario.node[18].appl 	NumberofFN 	0
scalar RSUExampleScenario.node[18].veinsmobility 	startTime 	43.4
scalar RSUExampleScenario.node[18].veinsmobility 	totalTime 	406.6
scalar RSUExampleScenario.node[18].veinsmobility 	stopTime 	450
scalar RSUExampleScenario.node[18].veinsmobility 	minSpeed 	0
scalar RSUExampleScenario.node[18].veinsmobility 	maxSpeed 	13.999969255689
scalar RSUExampleScenario.node[18].veinsmobility 	totalDistance 	2508.6757270874
scalar RSUExampleScenario.node[18].veinsmobility 	totalCO2Emission 	712.79455528108
scalar RSUExampleScenario.node[19].appl 	meanClusterNodes 	0.83333333333333
scalar RSUExampleScenario.node[19].appl 	meanClusterHeadUtility 	2.0113811241584
scalar RSUExampleScenario.node[19].appl 	NumberofCH 	0.48648648648649
scalar RSUExampleScenario.node[19].appl 	NumberofON 	0.51351351351351
scalar RSUExampleScenario.node[19].appl 	NumberofFN 	0
scalar RSUExampleScenario.node[19].veinsmobility 	startTime 	45.8
scalar RSUExampleScenario.node[19].veinsmobility 	totalTime 	404.2
scalar RSUExampleScenario.node[19].veinsmobility 	stopTime 	450
scalar RSUExampleScenario.node[19].veinsmobility 	minSpeed 	0
scalar RSUExampleScenario.node[19].veinsmobility 	maxSpeed 	13.999844096517
scalar RSUExampleScenario.node[19].veinsmobility 	totalDistance 	2470.9708603931
scalar RSUExampleScenario.node[19].veinsmobility 	totalCO2Emission 	709.23663772176
scalar RSUExampleScenario.node[2].appl 	meanClusterNodes 	0.77777777777778
scalar RSUExampleScenario.node[2].appl 	meanClusterHeadUtility 	1.9202896448197
scalar RSUExampleScenario.node[2].appl 	NumberofCH 	0.48648648648649
scalar RSUExampleScenario.node[2].appl 	NumberofON 	0.27027027027027
scalar RSUExampleScenario.node[2].appl 	NumberofFN 	0.24324324324324
scalar RSUExampleScenario.node[2].veinsmobility 	startTime 	4.9
scalar RSUExampleScenario.node[2].veinsmobility 	totalTime 	445.1
scalar RSUExampleScenario.node[2].veinsmobility 	stopTime 	450
scalar RSUExampleScenario.node[2].veinsmobility 	minSpeed 	0
scalar RSUExampleScenario.node[2].veinsmobility 	maxSpeed 	13.999996218621
scalar RSUExampleScenario.node[2].veinsmobility 	totalDistance 	3040.0917517178
scalar RSUExampleScenario.node[2].veinsmobility 	totalCO2Emission 	822.10425284347
scalar RSUExampleScenario.node[20].appl 	meanClusterNodes 	0.21052631578947
scalar RSUExampleScenario.node[20].appl 	meanClusterHeadUtility 	1.7890212016133
scalar RSUExampleScenario.node[20].appl 	NumberofCH 	0.51351351351351
scalar RSUExampleScenario.node[20].appl 	NumberofON 	0.48648648648649
scalar RSUExampleScenario.node[20].appl 	NumberofFN 	0
scalar RSUExampleScenario.node[20].veinsmobility 	startTime 	48.3
scalar RSUExampleScenario.node[20].veinsmobility 	totalTime 	401.7
scalar RSUExampleScenario.node[20].veinsmobility 	stopTime 	450
scalar RSUExampleScenario.node[20].veinsmobility 	minSpeed 	0
scalar RSUExampleScenario.node[20].veinsmobility 	maxSpeed 	13.99941456907
scalar RSUExampleScenario.node[20].veinsmobility 	totalDistance 	2441.0267304897
scalar RSUExampleScenario.node[20].veinsmobility 	totalCO2Emission 	702.56595912546
scalar RSUExampleScenario.node[21].appl 	meanClusterNodes 	1.5789473684211
scalar RSUExampleScenario.node[21].appl 	meanClusterHeadUtility 	1.8543859068547
scalar RSUExampleScenario.node[21].appl 	NumberofCH 	0.51351351351351
scalar RSUExampleScenario.node[21].appl 	NumberofON 	0.48648648648649
scalar RSUExampleScenario.node[21].appl 	NumberofFN 	0
scalar RSUExampleScenario.node[21].veinsmobility 	startTime 	50.7
scalar RSUExampleScenario.node[21].veinsmobility 	totalTime 	399.3
scalar RSUExampleScenario.node[21].veinsmobility 	stopTime 	450
scalar RSUExampleScenario.node[21].veinsmobility 	minSpeed 	0
scalar RSUExampleScenario.node[21].veinsmobility 	maxSpeed 	13.999927434144
scalar RSUExampleScenario.node[21].veinsmobility 	totalDistance 	2404.7468198736
scalar RSUExampleScenario.node[21].veinsmobility 	totalCO2Emission 	696.01336016167
scalar RSUExampleScenario.node[22].appl 	meanClusterNodes 	0.66666666666667
scalar RSUExampleScenario.node[22].appl 	meanClusterHeadUtility 	2.0717096595471
scalar RSUExampleScenario.node[22].appl 	NumberofCH 	0.48648648648649
scalar RSUExampleScenario.node[22].appl 	NumberofON 	0.32432432432432
scalar RSUExampleScenario.node[22].appl 	NumberofFN 	0.18918918918919
scalar RSUExampleScenario.node[22].veinsmobility 	startTime 	53.1
scalar RSUExampleScenario.node[22].veinsmobility 	totalTime 	396.9
scalar RSUExampleScenario.node[22].veinsmobility 	stopTime 	450
scalar RSUExampleScenario.node[22].veinsmobility 	minSpeed 	0
scalar RSUExampleScenario.node[22].veinsmobility 	maxSpeed 	13.999555647415
scalar RSUExampleScenario.node[22].veinsmobility 	totalDistance 	2375.6662653378
scalar RSUExampleScenario.node[22].veinsmobility 	totalCO2Emission 	686.74648559401
scalar RSUExampleScenario.node[23].appl 	meanClusterNodes 	1.4117647058824
scalar RSUExampleScenario.node[23].appl 	meanClusterHeadUtility 	1.8561685278308
scalar RSUExampleScenario.node[23].appl 	NumberofCH 	0.45945945945946
scalar RSUExampleScenario.node[23].appl 	NumberofON 	0.54054054054054
scalar RSUExampleScenario.node[23].appl 	NumberofFN 	0
scalar RSUExampleScenario.node[23].veinsmobility 	startTime 	55.5
scalar RSUExampleScenario.node[23].veinsmobility 	totalTime 	394.5
scalar RSUExampleScenario.node[23].veinsmobility 	stopTime 	450
scalar RSUExampleScenario.node[23].veinsmobility 	minSpeed 	0
scalar RSUExampleScenario.node[23].veinsmobility 	maxSpeed 	13.9996647075
scalar RSUExampleScenario.node[23].veinsmobility 	totalDistance 	2335.6461397922
scalar RSUExampleScenario.node[23].veinsmobility 	totalCO2Emission 	682.94149094752
scalar RSUExampleScenario.node[24].appl 	meanClusterNodes 	0.73684210526316
scalar RSUExampleScenario.node[24].appl 	meanClusterHeadUtility 	1.719340715366
scalar RSUExampleScenario.node[24].appl 	NumberofCH 	0.51351351351351
scalar RSUExampleScenario.node[24].appl 	NumberofON 	0.35135135135135
scalar RSUExampleScenario.node[24].appl 	NumberofFN 	0.13513513513514
scalar RSUExampleScenario.node[24].veinsmobility 	startTime 	57.9
scalar RSUExampleScenario.node[24].veinsmobility 	totalTime 	392.1
scalar RSUExampleScenario.node[24].veinsmobility 	stopTime 	450
scalar RSUExampleScenario.node[24].veinsmobility 	minSpeed 	0
scalar RSUExampleScenario.node[24].veinsmobility 	maxSpeed 	13.999901680963
scalar RSUExampleScenario.node[24].veinsmobility 	totalDistance 	2306.7993451666
scalar RSUExampleScenario.node[24].veinsmobility 	totalCO2Emission 	673.97704800271
scalar RSUExampleScenario.node[25].appl 	meanClusterNodes 	0.36842105263158
scalar RSUExampleScenario.node[25].appl 	meanClusterHeadUtility 	1.7289336403272
scalar RSUExampleScenario.node[25].appl 	NumberofCH 	0.51351351351351
scalar RSUExampleScenario.node[25].appl 	NumberofON 	0.48648648648649
scalar RSUExampleScenario.node[25].appl 	NumberofFN 	0
scalar RSUExampleScenario.node[25].veinsmobility 	startTime 	60.3
scalar RSUExampleScenario.node[25].veinsmobility 	totalTime 	389.7
scalar RSUExampleScenario.node[25].veinsmobility 	stopTime 	450
scalar RSUExampleScenario.node[25].veinsmobility 	minSpeed 	0
scalar RSUExampleScenario.node[25].veinsmobility 	maxSpeed 	13.999915386366
scalar RSUExampleScenario.node[25].veinsmobility 	totalDistance 	2268.5825264208
scalar RSUExampleScenario.node[25].veinsmobility 	totalCO2Emission 	674.29060161703
scalar RSUExampleScenario.node[26].appl 	meanClusterNodes 	1.2105263157895
scalar RSUExampleScenario.node[26].appl 	meanClusterHeadUtility 	1.8233667698803
scalar RSUExampleScenario.node[26].appl 	NumberofCH 	0.51351351351351
scalar RSUExampleScenario.node[26].appl 	NumberofON 	0.24324324324324
scalar RSUExampleScenario.node[26].appl 	NumberofFN 	0.24324324324324
scalar RSUExampleScenario.node[26].veinsmobility 	startTime 	62.7
scalar RSUExampleScenario.node[26].veinsmobility 	totalTime 	387.3
scalar RSUExampleScenario.node[26].veinsmobility 	stopTime 	450
scalar RSUExampleScenario.node[26].veinsmobility 	minSpeed 	0
scalar RSUExampleScenario.node[26].veinsmobility 	maxSpeed 	13.99989628291
scalar RSUExampleScenario.node[26].veinsmobility 	totalDistance 	2237.1193929545
scalar RSUExampleScenario.node[26].veinsmobility 	totalCO2Emission 	665.93211192083
scalar RSUExampleScenario.node[27].appl 	meanClusterNodes 	0.76470588235294
scalar RSUExampleScenario.node[27].appl 	meanClusterHeadUtility 	2.0717398809068
scalar RSUExampleScenario.node[27].appl 	NumberofCH 	0.45945945945946
scalar RSUExampleScenario.node[27].appl 	NumberofON 	0.54054054054054
scalar RSUExampleScenario.node[27].appl 	NumberofFN 	0
scalar RSUExampleScenario.node[27].veinsmobility 	startTime 	65.1
scalar RSUExampleScenario.node[27].veinsmobility 	totalTime 	384.9
scalar RSUExampleScenario.node[27].veinsmobility 	stopTime 	450
scalar RSUExampleScenario.node[27].veinsmobility 	minSpeed 	0
scalar RSUExampleScenario.node[27].veinsmobility 	maxSpeed 	13.999700154518
scalar RSUExampleScenario.node[27].veinsmobility 	totalDistance 	2200.9845185666
scalar RSUExampleScenario.node[27].veinsmobility 	totalCO2Emission 	661.20922804322
scalar RSUExampleScenario.node[28].appl 	meanClusterNodes 	1.5882352941176
scalar RSUExampleScenario.node[28].appl 	meanClusterHeadUtility 	1.9689427530204
scalar RSUExampleScenario.node[28].appl 	NumberofCH 	0.45945945945946
scalar RSUExampleScenario.node[28].appl 	NumberofON 	0.51351351351351
scalar RSUExampleScenario.node[28].appl 	NumberofFN 	0.027027027027027
scalar RSUExampleScenario.node[28].veinsmobility 	startTime 	67.5
scalar RSUExampleScenario.node[28].veinsmobility 	totalTime 	382.5
scalar RSUExampleScenario.node[28].veinsmobility 	stopTime 	450
scalar RSUExampleScenario.node[28].veinsmobility 	minSpeed 	0
scalar RSUExampleScenario.node[28].veinsmobility 	maxSpeed 	13.999989105009
scalar RSUExampleScenario.node[28].veinsmobility 	totalDistance 	2169.3667057811
scalar RSUExampleScenario.node[28].veinsmobility 	totalCO2Emission 	652.42421145725
scalar RSUExampleScenario.node[29].appl 	meanClusterNodes 	0.82352941176471
scalar RSUExampleScenario.node[29].appl 	meanClusterHeadUtility 	1.7840899405532
scalar RSUExampleScenario.node[29].appl 	NumberofCH 	0.45945945945946
scalar RSUExampleScenario.node[29].appl 	NumberofON 	0.54054054054054
scalar RSUExampleScenario.node[29].appl 	NumberofFN 	0
scalar RSUExampleScenario.node[29].veinsmobility 	startTime 	69.9
scalar RSUExampleScenario.node[29].veinsmobility 	totalTime 	380.1
scalar RSUExampleScenario.node[29].veinsmobility 	stopTime 	450
scalar RSUExampleScenario.node[29].veinsmobility 	minSpeed 	0
scalar RSUExampleScenario.node[29].veinsmobility 	maxSpeed 	13.999985547038
scalar RSUExampleScenario.node[29].veinsmobility 	totalDistance 	2132.6450290479
scalar RSUExampleScenario.node[29].veinsmobility 	totalCO2Emission 	651.05812110894
scalar RSUExampleScenario.node[3].appl 	meanClusterNodes 	1.2105263157895
scalar RSUExampleScenario.node[3].appl 	meanClusterHeadUtility 	1.8244273136609
scalar RSUExampleScenario.node[3].appl 	NumberofCH 	0.51351351351351
scalar RSUExampleScenario.node[3].appl 	NumberofON 	0.48648648648649
scalar RSUExampleScenario.node[3].appl 	NumberofFN 	0
scalar RSUExampleScenario.node[3].veinsmobility 	startTime 	7.3
scalar RSUExampleScenario.node[3].veinsmobility 	totalTime 	442.7
scalar RSUExampleScenario.node[3].veinsmobility 	stopTime 	450
scalar RSUExampleScenario.node[3].veinsmobility 	minSpeed 	0
scalar RSUExampleScenario.node[3].veinsmobility 	maxSpeed 	13.999953757271
scalar RSUExampleScenario.node[3].veinsmobility 	totalDistance 	2993.1094026028
scalar RSUExampleScenario.node[3].veinsmobility 	totalCO2Emission 	813.69258694753
scalar RSUExampleScenario.node[30].appl 	meanClusterNodes 	1.1111111111111
scalar RSUExampleScenario.node[30].appl 	meanClusterHeadUtility 	1.7369024498909
scalar RSUExampleScenario.node[30].appl 	NumberofCH 	0.48648648648649
scalar RSUExampleScenario.node[30].appl 	NumberofON 	0.45945945945946
scalar RSUExampleScenario.node[30].appl 	NumberofFN 	0.054054054054054
scalar RSUExampleScenario.node[30].veinsmobility 	startTime 	72.4
scalar RSUExampleScenario.node[30].veinsmobility 	totalTime 	377.6
scalar RSUExampleScenario.node[30].veinsmobility 	stopTime 	450
scalar RSUExampleScenario.node[30].veinsmobility 	minSpeed 	0
scalar RSUExampleScenario.node[30].veinsmobility 	maxSpeed 	13.999938411585
scalar RSUExampleScenario.node[30].veinsmobility 	totalDistance 	2102.6016223047
scalar RSUExampleScenario.node[30].veinsmobility 	totalCO2Emission 	645.39660495476
scalar RSUExampleScenario.node[31].appl 	meanClusterNodes 	0.44444444444444
scalar RSUExampleScenario.node[31].appl 	meanClusterHeadUtility 	1.7561985936299
scalar RSUExampleScenario.node[31].appl 	NumberofCH 	0.48648648648649
scalar RSUExampleScenario.node[31].appl 	NumberofON 	0.51351351351351
scalar RSUExampleScenario.node[31].appl 	NumberofFN 	0
scalar RSUExampleScenario.node[31].veinsmobility 	startTime 	74.8
scalar RSUExampleScenario.node[31].veinsmobility 	totalTime 	375.2
scalar RSUExampleScenario.node[31].veinsmobility 	stopTime 	450
scalar RSUExampleScenario.node[31].veinsmobility 	minSpeed 	0
scalar RSUExampleScenario.node[31].veinsmobility 	maxSpeed 	13.999966993853
scalar RSUExampleScenario.node[31].veinsmobility 	totalDistance 	2067.155837942
scalar RSUExampleScenario.node[31].veinsmobility 	totalCO2Emission 	638.73198576166
scalar RSUExampleScenario.node[32].appl 	meanClusterNodes 	1.3
scalar RSUExampleScenario.node[32].appl 	meanClusterHeadUtility 	1.5767869769588
scalar RSUExampleScenario.node[32].appl 	NumberofCH 	0.54054054054054
scalar RSUExampleScenario.node[32].appl 	NumberofON 	0.45945945945946
scalar RSUExampleScenario.node[32].appl 	NumberofFN 	0
scalar RSUExampleScenario.node[32].veinsmobility 	startTime 	77.2
scalar RSUExampleScenario.node[32].veinsmobility 	totalTime 	372.8
scalar RSUExampleScenario.node[32].veinsmobility 	stopTime 	450
scalar RSUExampleScenario.node[32].veinsmobility 	minSpeed 	0
scalar RSUExampleScenario.node[32].veinsmobility 	maxSpeed 	13.999860020322
scalar RSUExampleScenario.node[32].veinsmobility 	totalDistance 	2033.8475738332
scalar RSUExampleScenario.node[32].veinsmobility 	totalCO2Emission 	632.26185584076
scalar RSUExampleScenario.node[33].appl 	meanClusterNodes 	1.6111111111111
scalar RSUExampleScenario.node[33].appl 	meanClusterHeadUtility 	1.8934183642825
scalar RSUExampleScenario.node[33].appl 	NumberofCH 	0.48648648648649
scalar RSUExampleScenario.node[33].appl 	NumberofON 	0.51351351351351
scalar RSUExampleScenario.node[33].appl 	NumberofFN 	0
scalar RSUExampleScenario.node[33].veinsmobility 	startTime 	79.6
scalar RSUExampleScenario.node[33].veinsmobility 	totalTime 	370.4
scalar RSUExampleScenario.node[33].veinsmobility 	stopTime 	450
scalar RSUExampleScenario.node[33].veinsmobility 	minSpeed 	0
scalar RSUExampleScenario.node[33].veinsmobility 	maxSpeed 	13.999994158763
scalar RSUExampleScenario.node[33].veinsmobility 	totalDistance 	2000.3482644177
scalar RSUExampleScenario.node[33].veinsmobility 	totalCO2Emission 	627.99551973024
scalar RSUExampleScenario.node[34].appl 	meanClusterNodes 	1.3333333333333
scalar RSUExampleScenario.node[34].appl 	meanClusterHeadUtility 	1.892765611347
scalar RSUExampleScenario.node[34].appl 	NumberofCH 	0.48648648648649
scalar RSUExampleScenario.node[34].appl 	NumberofON 	0.43243243243243
scalar RSUExampleScenario.node[34].appl 	NumberofFN 	0.081081081081081
scalar RSUExampleScenario.node[34].veinsmobility 	startTime 	82
scalar RSUExampleScenario.node[34].veinsmobility 	totalTime 	368
scalar RSUExampleScenario.node[34].veinsmobility 	stopTime 	450
scalar RSUExampleScenario.node[34].veinsmobility 	minSpeed 	0
scalar RSUExampleScenario.node[34].veinsmobility 	maxSpeed 	13.999855043055
scalar RSUExampleScenario.node[34].veinsmobility 	totalDistance 	1966.7210122237
scalar RSUExampleScenario.node[34].veinsmobility 	totalCO2Emission 	621.47206943757
scalar RSUExampleScenario.node[35].appl 	meanClusterNodes 	0.88888888888889
scalar RSUExampleScenario.node[35].appl 	meanClusterHeadUtility 	2.1369337608126
scalar RSUExampleScenario.node[35].appl 	NumberofCH 	0.48648648648649
scalar RSUExampleScenario.node[35].appl 	NumberofON 	0.51351351351351
scalar RSUExampleScenario.node[35].appl 	NumberofFN 	0
scalar RSUExampleScenario.node[35].veinsmobility 	startTime 	84.4
scalar RSUExampleScenario.node[35].veinsmobility 	totalTime 	365.6
scalar RSUExampleScenario.node[35].veinsmobility 	stopTime 	450
scalar RSUExampleScenario.node[35].veinsmobility 	minSpeed 	0
scalar RSUExampleScenario.node[35].veinsmobility 	maxSpeed 	13.999729881824
scalar RSUExampleScenario.node[35].veinsmobility 	totalDistance 	1933.4912351142
scalar RSUExampleScenario.node[35].veinsmobility 	totalCO2Emission 	616.70523542235
scalar RSUExampleScenario.node[36].appl 	meanClusterNodes 	0.77777777777778
scalar RSUExampleScenario.node[36].appl 	meanClusterHeadUtility 	1.7238587318036
scalar RSUExampleScenario.node[36].appl 	NumberofCH 	0.48648648648649
scalar RSUExampleScenario.node[36].appl 	NumberofON 	0.51351351351351
scalar RSUExampleScenario.node[36].appl 	NumberofFN 	0
scalar RSUExampleScenario.node[36].veinsmobility 	startTime 	86.8
scalar RSUExampleScenario.node[36].veinsmobility 	totalTime 	363.2
scalar RSUExampleScenario.node[36].veinsmobility 	stopTime 	450
scalar RSUExampleScenario.node[36].veinsmobility 	minSpeed 	0
scalar RSUExampleScenario.node[36].veinsmobility 	maxSpeed 	13.999399879049
scalar RSUExampleScenario.node[36].veinsmobility 	totalDistance 	1900.0121526324
scalar RSUExampleScenario.node[36].veinsmobility 	totalCO2Emission 	606.71836624527
scalar RSUExampleScenario.node[37].appl 	meanClusterNodes 	1.5263157894737
scalar RSUExampleScenario.node[37].appl 	meanClusterHeadUtility 	1.6819279720063
scalar RSUExampleScenario.node[37].appl 	NumberofCH 	0.51351351351351
scalar RSUExampleScenario.node[37].appl 	NumberofON 	0.48648648648649
scalar RSUExampleScenario.node[37].appl 	NumberofFN 	0
scalar RSUExampleScenario.node[37].veinsmobility 	startTime 	89.2
scalar RSUExampleScenario.node[37].veinsmobility 	totalTime 	360.8
scalar RSUExampleScenario.node[37].veinsmobility 	stopTime 	450
scalar RSUExampleScenario.node[37].veinsmobility 	minSpeed 	0
scalar RSUExampleScenario.node[37].veinsmobility 	maxSpeed 	13.999720274555
scalar RSUExampleScenario.node[37].veinsmobility 	totalDistance 	1866.6231379601
scalar RSUExampleScenario.node[37].veinsmobility 	totalCO2Emission 	605.0151956111
scalar RSUExampleScenario.node[38].appl 	meanClusterNodes 	0.31578947368421
scalar RSUExampleScenario.node[38].appl 	meanClusterHeadUtility 	1.5969434145168
scalar RSUExampleScenario.node[38].appl 	NumberofCH 	0.51351351351351
scalar RSUExampleScenario.node[38].appl 	NumberofON 	0.48648648648649
scalar RSUExampleScenario.node[38].appl 	NumberofFN 	0
scalar RSUExampleScenario.node[38].veinsmobility 	startTime 	91.6
scalar RSUExampleScenario.node[38].veinsmobility 	totalTime 	358.4
scalar RSUExampleScenario.node[38].veinsmobility 	stopTime 	450
scalar RSUExampleScenario.node[38].veinsmobility 	minSpeed 	0
scalar RSUExampleScenario.node[38].veinsmobility 	maxSpeed 	13.999737623073
scalar RSUExampleScenario.node[38].veinsmobility 	totalDistance 	1832.9246303991
scalar RSUExampleScenario.node[38].veinsmobility 	totalCO2Emission 	600.03293325885
scalar RSUExampleScenario.node[39].appl 	meanClusterNodes 	0.8
scalar RSUExampleScenario.node[39].appl 	meanClusterHeadUtility 	1.699156481294
scalar RSUExampleScenario.node[39].appl 	NumberofCH 	0.54054054054054
scalar RSUExampleScenario.node[39].appl 	NumberofON 	0.45945945945946
scalar RSUExampleScenario.node[39].appl 	NumberofFN 	0
scalar RSUExampleScenario.node[39].veinsmobility 	startTime 	94
scalar RSUExampleScenario.node[39].veinsmobility 	totalTime 	356
scalar RSUExampleScenario.node[39].veinsmobility 	stopTime 	450
scalar RSUExampleScenario.node[39].veinsmobility 	minSpeed 	0
scalar RSUExampleScenario.node[39].veinsmobility 	maxSpeed 	13.999859896798
scalar RSUExampleScenario.node[39].veinsmobility 	totalDistance 	1798.8897115534
scalar RSUExampleScenario.node[39].veinsmobility 	totalCO2Emission 	592.09279901743
scalar RSUExampleScenario.node[4].appl 	meanClusterNodes 	0.94444444444444
scalar RSUExampleScenario.node[4].appl 	meanClusterHeadUtility 	1.819870554206
scalar RSUExampleScenario.node[4].appl 	NumberofCH 	0.48648648648649
scalar RSUExampleScenario.node[4].appl 	NumberofON 	0.51351351351351
scalar RSUExampleScenario.node[4].appl 	NumberofFN 	0
scalar RSUExampleScenario.node[4].veinsmobility 	startTime 	9.7
scalar RSUExampleScenario.node[4].veinsmobility 	totalTime 	440.3
scalar RSUExampleScenario.node[4].veinsmobility 	stopTime 	450
scalar RSUExampleScenario.node[4].veinsmobility 	minSpeed 	0
scalar RSUExampleScenario.node[4].veinsmobility 	maxSpeed 	13.999969013091
scalar RSUExampleScenario.node[4].veinsmobility 	totalDistance 	2948.6766769068
scalar RSUExampleScenario.node[4].veinsmobility 	totalCO2Emission 	796.93825796517
scalar RSUExampleScenario.node[40].appl 	meanClusterNodes 	1.2105263157895
scalar RSUExampleScenario.node[40].appl 	meanClusterHeadUtility 	1.6973901291075
scalar RSUExampleScenario.node[40].appl 	NumberofCH 	0.51351351351351
scalar RSUExampleScenario.node[40].appl 	NumberofON 	0.24324324324324
scalar RSUExampleScenario.node[40].appl 	NumberofFN 	0.24324324324324
scalar RSUExampleScenario.node[40].veinsmobility 	startTime 	96.5
scalar RSUExampleScenario.node[40].veinsmobility 	totalTime 	353.5
scalar RSUExampleScenario.node[40].veinsmobility 	stopTime 	450
scalar RSUExampleScenario.node[40].veinsmobility 	minSpeed 	0
scalar RSUExampleScenario.node[40].veinsmobility 	maxSpeed 	13.999905522454
scalar RSUExampleScenario.node[40].veinsmobility 	totalDistance 	1765.9886044252
scalar RSUExampleScenario.node[40].veinsmobility 	totalCO2Emission 	584.17885914729
scalar RSUExampleScenario.node[41].appl 	meanClusterNodes 	0.44444444444444
scalar RSUExampleScenario.node[41].appl 	meanClusterHeadUtility 	1.777495800068
scalar RSUExampleScenario.node[41].appl 	NumberofCH 	0.48648648648649
scalar RSUExampleScenario.node[41].appl 	NumberofON 	0.51351351351351
scalar RSUExampleScenario.node[41].appl 	NumberofFN 	0
scalar RSUExampleScenario.node[41].veinsmobility 	startTime 	98.9
scalar RSUExampleScenario.node[41].veinsmobility 	totalTime 	351.1
scalar RSUExampleScenario.node[41].veinsmobility 	stopTime 	450
scalar RSUExampleScenario.node[41].veinsmobility 	minSpeed 	0
scalar RSUExampleScenario.node[41].veinsmobility 	maxSpeed 	13.99991482768
scalar RSUExampleScenario.node[41].veinsmobility 	totalDistance 	1732.0327084877
scalar RSUExampleScenario.node[41].veinsmobility 	totalCO2Emission 	581.98795184782
scalar RSUExampleScenario.node[42].appl 	meanClusterNodes 	0.68421052631579
scalar RSUExampleScenario.node[42].appl 	meanClusterHeadUtility 	1.7088284881398
scalar RSUExampleScenario.node[42].appl 	NumberofCH 	0.51351351351351
scalar RSUExampleScenario.node[42].appl 	NumberofON 	0.48648648648649
scalar RSUExampleScenario.node[42].appl 	NumberofFN 	0
scalar RSUExampleScenario.node[42].veinsmobility 	startTime 	101.3
scalar RSUExampleScenario.node[42].veinsmobility 	totalTime 	348.7
scalar RSUExampleScenario.node[42].veinsmobility 	stopTime 	450
scalar RSUExampleScenario.node[42].veinsmobility 	minSpeed 	0
scalar RSUExampleScenario.node[42].veinsmobility 	maxSpeed 	13.999678882905
scalar RSUExampleScenario.node[42].veinsmobility 	totalDistance 	1697.8659336173
scalar RSUExampleScenario.node[42].veinsmobility 	totalCO2Emission 	574.74187874265
scalar RSUExampleScenario.node[43].appl 	meanClusterNodes 	0.83333333333333
scalar RSUExampleScenario.node[43].appl 	meanClusterHeadUtility 	1.852675205643
scalar RSUExampleScenario.node[43].appl 	NumberofCH 	0.48648648648649
scalar RSUExampleScenario.node[43].appl 	NumberofON 	0.51351351351351
scalar RSUExampleScenario.node[43].appl 	NumberofFN 	0
scalar RSUExampleScenario.node[43].veinsmobility 	startTime 	103.7
scalar RSUExampleScenario.node[43].veinsmobility 	totalTime 	346.3
scalar RSUExampleScenario.node[43].veinsmobility 	stopTime 	450
scalar RSUExampleScenario.node[43].veinsmobility 	minSpeed 	0
scalar RSUExampleScenario.node[43].veinsmobility 	maxSpeed 	13.999914508474
scalar RSUExampleScenario.node[43].veinsmobility 	totalDistance 	1663.2676522365
scalar RSUExampleScenario.node[43].veinsmobility 	totalCO2Emission 	567.68875620295
scalar RSUExampleScenario.node[44].appl 	meanClusterNodes 	0.88888888888889
scalar RSUExampleScenario.node[44].appl 	meanClusterHeadUtility 	1.8265966222674
scalar RSUExampleScenario.node[44].appl 	NumberofCH 	0.48648648648649
scalar RSUExampleScenario.node[44].appl 	NumberofON 	0.51351351351351
scalar RSUExampleScenario.node[44].appl 	NumberofFN 	0
scalar RSUExampleScenario.node[44].veinsmobility 	startTime 	106.1
scalar RSUExampleScenario.node[44].veinsmobility 	totalTime 	343.9
scalar RSUExampleScenario.node[44].veinsmobility 	stopTime 	450
scalar RSUExampleScenario.node[44].veinsmobility 	minSpeed 	0
scalar RSUExampleScenario.node[44].veinsmobility 	maxSpeed 	13.999673878821
scalar RSUExampleScenario.node[44].veinsmobility 	totalDistance 	1631.2484122239
scalar RSUExampleScenario.node[44].veinsmobility 	totalCO2Emission 	565.6750923188
scalar RSUExampleScenario.node[45].appl 	meanClusterNodes 	0.78947368421053
scalar RSUExampleScenario.node[45].appl 	meanClusterHeadUtility 	1.9386394361313
scalar RSUExampleScenario.node[45].appl 	NumberofCH 	0.51351351351351
scalar RSUExampleScenario.node[45].appl 	NumberofON 	0.48648648648649
scalar RSUExampleScenario.node[45].appl 	NumberofFN 	0
scalar RSUExampleScenario.node[45].veinsmobility 	startTime 	108.5
scalar RSUExampleScenario.node[45].veinsmobility 	totalTime 	341.5
scalar RSUExampleScenario.node[45].veinsmobility 	stopTime 	450
scalar RSUExampleScenario.node[45].veinsmobility 	minSpeed 	0
scalar RSUExampleScenario.node[45].veinsmobility 	maxSpeed 	13.999425837144
scalar RSUExampleScenario.node[45].veinsmobility 	totalDistance 	1594.5256385645
scalar RSUExampleScenario.node[45].veinsmobility 	totalCO2Emission 	560.12246452555
scalar RSUExampleScenario.node[46].appl 	meanClusterNodes 	0.33333333333333
scalar RSUExampleScenario.node[46].appl 	meanClusterHeadUtility 	1.7769330106067
scalar RSUExampleScenario.node[46].appl 	NumberofCH 	0.48648648648649
scalar RSUExampleScenario.node[46].appl 	NumberofON 	0.51351351351351
scalar RSUExampleScenario.node[46].appl 	NumberofFN 	0
scalar RSUExampleScenario.node[46].veinsmobility 	startTime 	110.9
scalar RSUExampleScenario.node[46].veinsmobility 	totalTime 	339.1
scalar RSUExampleScenario.node[46].veinsmobility 	stopTime 	450
scalar RSUExampleScenario.node[46].veinsmobility 	minSpeed 	0
scalar RSUExampleScenario.node[46].veinsmobility 	maxSpeed 	13.999965563691
scalar RSUExampleScenario.node[46].veinsmobility 	totalDistance 	1562.5774604248
scalar RSUExampleScenario.node[46].veinsmobility 	totalCO2Emission 	555.55235554292
scalar RSUExampleScenario.node[47].appl 	meanClusterNodes 	2.0526315789474
scalar RSUExampleScenario.node[47].appl 	meanClusterHeadUtility 	1.8040751346596
scalar RSUExampleScenario.node[47].appl 	NumberofCH 	0.51351351351351
scalar RSUExampleScenario.node[47].appl 	NumberofON 	0.48648648648649
scalar RSUExampleScenario.node[47].appl 	NumberofFN 	0
scalar RSUExampleScenario.node[47].veinsmobility 	startTime 	113.3
scalar RSUExampleScenario.node[47].veinsmobility 	totalTime 	336.7
scalar RSUExampleScenario.node[47].veinsmobility 	stopTime 	450
scalar RSUExampleScenario.node[47].veinsmobility 	minSpeed 	0
scalar RSUExampleScenario.node[47].veinsmobility 	maxSpeed 	13.999919808488
scalar RSUExampleScenario.node[47].veinsmobility 	totalDistance 	1528.4528527281
scalar RSUExampleScenario.node[47].veinsmobility 	totalCO2Emission 	547.03268592988
scalar RSUExampleScenario.node[48].appl 	meanClusterNodes 	0.55555555555556
scalar RSUExampleScenario.node[48].appl 	meanClusterHeadUtility 	2.2854089680395
scalar RSUExampleScenario.node[48].appl 	NumberofCH 	0.48648648648649
scalar RSUExampleScenario.node[48].appl 	NumberofON 	0.51351351351351
scalar RSUExampleScenario.node[48].appl 	NumberofFN 	0
scalar RSUExampleScenario.node[48].veinsmobility 	startTime 	115.7
scalar RSUExampleScenario.node[48].veinsmobility 	totalTime 	334.3
scalar RSUExampleScenario.node[48].veinsmobility 	stopTime 	450
scalar RSUExampleScenario.node[48].veinsmobility 	minSpeed 	0
scalar RSUExampleScenario.node[48].veinsmobility 	maxSpeed 	13.999856439468
scalar RSUExampleScenario.node[48].veinsmobility 	totalDistance 	1494.307515092
scalar RSUExampleScenario.node[48].veinsmobility 	totalCO2Emission 	539.30304105067
scalar RSUExampleScenario.node[49].appl 	meanClusterNodes 	1.1111111111111
scalar RSUExampleScenario.node[49].appl 	meanClusterHeadUtility 	1.8907851638035
scalar RSUExampleScenario.node[49].appl 	NumberofCH 	0.48648648648649
scalar RSUExampleScenario.node[49].appl 	NumberofON 	0.43243243243243
scalar RSUExampleScenario.node[49].appl 	NumberofFN 	0.081081081081081
scalar RSUExampleScenario.node[49].veinsmobility 	startTime 	118.1
scalar RSUExampleScenario.node[49].veinsmobility 	totalTime 	331.9
scalar RSUExampleScenario.node[49].veinsmobility 	stopTime 	450
scalar RSUExampleScenario.node[49].veinsmobility 	minSpeed 	0
scalar RSUExampleScenario.node[49].veinsmobility 	maxSpeed 	13.998977174489
scalar RSUExampleScenario.node[49].veinsmobility 	totalDistance 	1461.8908449863
scalar RSUExampleScenario.node[49].veinsmobility 	totalCO2Emission 	536.06550310801
scalar RSUExampleScenario.node[5].appl 	meanClusterNodes 	0.22222222222222
scalar RSUExampleScenario.node[5].appl 	meanClusterHeadUtility 	1.8935530562051
scalar RSUExampleScenario.node[5].appl 	NumberofCH 	0.48648648648649
scalar RSUExampleScenario.node[5].appl 	NumberofON 	0.51351351351351
scalar RSUExampleScenario.node[5].appl 	NumberofFN 	0
scalar RSUExampleScenario.node[5].veinsmobility 	startTime 	12.1
scalar RSUExampleScenario.node[5].veinsmobility 	totalTime 	437.9
scalar RSUExampleScenario.node[5].veinsmobility 	stopTime 	450
scalar RSUExampleScenario.node[5].veinsmobility 	minSpeed 	0
scalar RSUExampleScenario.node[5].veinsmobility 	maxSpeed 	13.999970765063
scalar RSUExampleScenario.node[5].veinsmobility 	totalDistance 	2913.8478420143
scalar RSUExampleScenario.node[5].veinsmobility 	totalCO2Emission 	784.53707700381
scalar RSUExampleScenario.node[50].appl 	meanClusterNodes 	1.3684210526316
scalar RSUExampleScenario.node[50].appl 	meanClusterHeadUtility 	1.7587593373479
scalar RSUExampleScenario.node[50].appl 	NumberofCH 	0.51351351351351
scalar RSUExampleScenario.node[50].appl 	NumberofON 	0.48648648648649
scalar RSUExampleScenario.node[50].appl 	NumberofFN 	0
scalar RSUExampleScenario.node[50].veinsmobility 	startTime 	120.6
scalar RSUExampleScenario.node[50].veinsmobility 	totalTime 	329.4
scalar RSUExampleScenario.node[50].veinsmobility 	stopTime 	450
scalar RSUExampleScenario.node[50].veinsmobility 	minSpeed 	0
scalar RSUExampleScenario.node[50].veinsmobility 	maxSpeed 	13.999962552844
scalar RSUExampleScenario.node[50].veinsmobility 	totalDistance 	1427.8256061339
scalar RSUExampleScenario.node[50].veinsmobility 	totalCO2Emission 	531.85179345289
scalar RSUExampleScenario.node[51].appl 	meanClusterNodes 	0.94736842105263
scalar RSUExampleScenario.node[51].appl 	meanClusterHeadUtility 	1.6548908512918
scalar RSUExampleScenario.node[51].appl 	NumberofCH 	0.51351351351351
scalar RSUExampleScenario.node[51].appl 	NumberofON 	0.48648648648649
scalar RSUExampleScenario.node[51].appl 	NumberofFN 	0
scalar RSUExampleScenario.node[51].veinsmobility 	startTime 	123
scalar RSUExampleScenario.node[51].veinsmobility 	totalTime 	327
scalar RSUExampleScenario.node[51].veinsmobility 	stopTime 	450
scalar RSUExampleScenario.node[51].veinsmobility 	minSpeed 	0
scalar RSUExampleScenario.node[51].veinsmobility 	maxSpeed 	13.999642534205
scalar RSUExampleScenario.node[51].veinsmobility 	totalDistance 	1395.4542241953
scalar RSUExampleScenario.node[51].veinsmobility 	totalCO2Emission 	524.64563809947
scalar RSUExampleScenario.node[52].appl 	meanClusterNodes 	0.82352941176471
scalar RSUExampleScenario.node[52].appl 	meanClusterHeadUtility 	1.8896033213021
scalar RSUExampleScenario.node[52].appl 	NumberofCH 	0.45945945945946
scalar RSUExampleScenario.node[52].appl 	NumberofON 	0.54054054054054
scalar RSUExampleScenario.node[52].appl 	NumberofFN 	0
scalar RSUExampleScenario.node[52].veinsmobility 	startTime 	125.4
scalar RSUExampleScenario.node[52].veinsmobility 	totalTime 	324.6
scalar RSUExampleScenario.node[52].veinsmobility 	stopTime 	450
scalar RSUExampleScenario.node[52].veinsmobility 	minSpeed 	0
scalar RSUExampleScenario.node[52].veinsmobility 	maxSpeed 	13.999750533307
scalar RSUExampleScenario.node[52].veinsmobility 	totalDistance 	1361.9310726132
scalar RSUExampleScenario.node[52].veinsmobility 	totalCO2Emission 	517.30538137515
scalar RSUExampleScenario.node[53].appl 	meanClusterNodes 	0.38888888888889
scalar RSUExampleScenario.node[53].appl 	meanClusterHeadUtility 	1.9770144639584
scalar RSUExampleScenario.node[53].appl 	NumberofCH 	0.48648648648649
scalar RSUExampleScenario.node[53].appl 	NumberofON 	0.51351351351351
scalar RSUExampleScenario.node[53].appl 	NumberofFN 	0
scalar RSUExampleScenario.node[53].veinsmobility 	startTime 	127.8
scalar RSUExampleScenario.node[53].veinsmobility 	totalTime 	322.2
scalar RSUExampleScenario.node[53].veinsmobility 	stopTime 	450
scalar RSUExampleScenario.node[53].veinsmobility 	minSpeed 	0
scalar RSUExampleScenario.node[53].veinsmobility 	maxSpeed 	13.999707895797
scalar RSUExampleScenario.node[53].veinsmobility 	totalDistance 	1325.0181282367
scalar RSUExampleScenario.node[53].veinsmobility 	totalCO2Emission 	513.31429589528
scalar RSUExampleScenario.node[54].appl 	meanClusterNodes 	0.44444444444444
scalar RSUExampleScenario.node[54].appl 	meanClusterHeadUtility 	1.7599877894354
scalar RSUExampleScenario.node[54].appl 	NumberofCH 	0.48648648648649
scalar RSUExampleScenario.node[54].appl 	NumberofON 	0.51351351351351
scalar RSUExampleScenario.node[54].appl 	NumberofFN 	0
scalar RSUExampleScenario.node[54].veinsmobility 	startTime 	130.2
scalar RSUExampleScenario.node[54].veinsmobility 	totalTime 	319.8
scalar RSUExampleScenario.node[54].veinsmobility 	stopTime 	450
scalar RSUExampleScenario.node[54].veinsmobility 	minSpeed 	0
scalar RSUExampleScenario.node[54].veinsmobility 	maxSpeed 	13.999693301998
scalar RSUExampleScenario.node[54].veinsmobility 	totalDistance 	1293.2758742192
scalar RSUExampleScenario.node[54].veinsmobility 	totalCO2Emission 	504.00142005501
scalar RSUExampleScenario.node[55].appl 	meanClusterNodes 	1.5555555555556
scalar RSUExampleScenario.node[55].appl 	meanClusterHeadUtility 	1.8008086659193
scalar RSUExampleScenario.node[55].appl 	NumberofCH 	0.48648648648649
scalar RSUExampleScenario.node[55].appl 	NumberofON 	0.51351351351351
scalar RSUExampleScenario.node[55].appl 	NumberofFN 	0
scalar RSUExampleScenario.node[55].veinsmobility 	startTime 	132.6
scalar RSUExampleScenario.node[55].veinsmobility 	totalTime 	317.4
scalar RSUExampleScenario.node[55].veinsmobility 	stopTime 	450
scalar RSUExampleScenario.node[55].veinsmobility 	minSpeed 	0
scalar RSUExampleScenario.node[55].veinsmobility 	maxSpeed 	13.999554082621
scalar RSUExampleScenario.node[55].veinsmobility 	totalDistance 	1260.1661283791
scalar RSUExampleScenario.node[55].veinsmobility 	totalCO2Emission 	504.36961402173
scalar RSUExampleScenario.node[56].appl 	meanClusterNodes 	0.77777777777778
scalar RSUExampleScenario.node[56].appl 	meanClusterHeadUtility 	1.8079901771402
scalar RSUExampleScenario.node[56].appl 	NumberofCH 	0.48648648648649
scalar RSUExampleScenario.node[56].appl 	NumberofON 	0.51351351351351
scalar RSUExampleScenario.node[56].appl 	NumberofFN 	0
scalar RSUExampleScenario.node[56].veinsmobility 	startTime 	135
scalar RSUExampleScenario.node[56].veinsmobility 	totalTime 	315
scalar RSUExampleScenario.node[56].veinsmobility 	stopTime 	450
scalar RSUExampleScenario.node[56].veinsmobility 	minSpeed 	0
scalar RSUExampleScenario.node[56].veinsmobility 	maxSpeed 	13.999944411879
scalar RSUExampleScenario.node[56].veinsmobility 	totalDistance 	1225.9511175244
scalar RSUExampleScenario.node[56].veinsmobility 	totalCO2Emission 	496.6073019769
scalar RSUExampleScenario.node[57].appl 	meanClusterNodes 	0.57894736842105
scalar RSUExampleScenario.node[57].appl 	meanClusterHeadUtility 	1.6260526188117
scalar RSUExampleScenario.node[57].appl 	NumberofCH 	0.51351351351351
scalar RSUExampleScenario.node[57].appl 	NumberofON 	0.48648648648649
scalar RSUExampleScenario.node[57].appl 	NumberofFN 	0
scalar RSUExampleScenario.node[57].veinsmobility 	startTime 	137.4
scalar RSUExampleScenario.node[57].veinsmobility 	totalTime 	312.6
scalar RSUExampleScenario.node[57].veinsmobility 	stopTime 	450
scalar RSUExampleScenario.node[57].veinsmobility 	minSpeed 	0
scalar RSUExampleScenario.node[57].veinsmobility 	maxSpeed 	13.999412494048
scalar RSUExampleScenario.node[57].veinsmobility 	totalDistance 	1193.3884719263
scalar RSUExampleScenario.node[57].veinsmobility 	totalCO2Emission 	489.87696225026
scalar RSUExampleScenario.node[58].appl 	meanClusterNodes 	1.1578947368421
scalar RSUExampleScenario.node[58].appl 	meanClusterHeadUtility 	1.6828915174451
scalar RSUExampleScenario.node[58].appl 	NumberofCH 	0.51351351351351
scalar RSUExampleScenario.node[58].appl 	NumberofON 	0.43243243243243
scalar RSUExampleScenario.node[58].appl 	NumberofFN 	0.054054054054054
scalar RSUExampleScenario.node[58].veinsmobility 	startTime 	139.8
scalar RSUExampleScenario.node[58].veinsmobility 	totalTime 	310.2
scalar RSUExampleScenario.node[58].veinsmobility 	stopTime 	450
scalar RSUExampleScenario.node[58].veinsmobility 	minSpeed 	0
scalar RSUExampleScenario.node[58].veinsmobility 	maxSpeed 	13.999114095073
scalar RSUExampleScenario.node[58].veinsmobility 	totalDistance 	1159.724868442
scalar RSUExampleScenario.node[58].veinsmobility 	totalCO2Emission 	486.93063619632
scalar RSUExampleScenario.node[59].appl 	meanClusterNodes 	0.58823529411765
scalar RSUExampleScenario.node[59].appl 	meanClusterHeadUtility 	1.8072187106052
scalar RSUExampleScenario.node[59].appl 	NumberofCH 	0.45945945945946
scalar RSUExampleScenario.node[59].appl 	NumberofON 	0.54054054054054
scalar RSUExampleScenario.node[59].appl 	NumberofFN 	0
scalar RSUExampleScenario.node[59].veinsmobility 	startTime 	142.2
scalar RSUExampleScenario.node[59].veinsmobility 	totalTime 	307.8
scalar RSUExampleScenario.node[59].veinsmobility 	stopTime 	450
scalar RSUExampleScenario.node[59].veinsmobility 	minSpeed 	0
scalar RSUExampleScenario.node[59].veinsmobility 	maxSpeed 	13.999924917028
scalar RSUExampleScenario.node[59].veinsmobility 	totalDistance 	1125.7664688654
scalar RSUExampleScenario.node[59].veinsmobility 	totalCO2Emission 	477.85262902648
scalar RSUExampleScenario.node[6].appl 	meanClusterNodes 	0.42105263157895
scalar RSUExampleScenario.node[6].appl 	meanClusterHeadUtility 	1.9059450273915
scalar RSUExampleScenario.node[6].appl 	NumberofCH 	0.51351351351351
scalar RSUExampleScenario.node[6].appl 	NumberofON 	0.48648648648649
scalar RSUExampleScenario.node[6].appl 	NumberofFN 	0
scalar RSUExampleScenario.node[6].veinsmobility 	startTime 	14.5
scalar RSUExampleScenario.node[6].veinsmobility 	totalTime 	435.5
scalar RSUExampleScenario.node[6].veinsmobility 	stopTime 	450
scalar RSUExampleScenario.node[6].veinsmobility 	minSpeed 	0
scalar RSUExampleScenario.node[6].veinsmobility 	maxSpeed 	13.999993922673
scalar RSUExampleScenario.node[6].veinsmobility 	totalDistance 	2905.4220161527
scalar RSUExampleScenario.node[6].veinsmobility 	totalCO2Emission 	778.78907853283
scalar RSUExampleScenario.node[60].appl 	meanClusterNodes 	0.52941176470588
scalar RSUExampleScenario.node[60].appl 	meanClusterHeadUtility 	1.966285589582
scalar RSUExampleScenario.node[60].appl 	NumberofCH 	0.45945945945946
scalar RSUExampleScenario.node[60].appl 	NumberofON 	0.54054054054054
scalar RSUExampleScenario.node[60].appl 	NumberofFN 	0
scalar RSUExampleScenario.node[60].veinsmobility 	startTime 	144.7
scalar RSUExampleScenario.node[60].veinsmobility 	totalTime 	305.3
scalar RSUExampleScenario.node[60].veinsmobility 	stopTime 	450
scalar RSUExampleScenario.node[60].veinsmobility 	minSpeed 	0
scalar RSUExampleScenario.node[60].veinsmobility 	maxSpeed 	13.998114647493
scalar RSUExampleScenario.node[60].veinsmobility 	totalDistance 	1090.1584332266
scalar RSUExampleScenario.node[60].veinsmobility 	totalCO2Emission 	474.64346341741
scalar RSUExampleScenario.node[61].appl 	meanClusterNodes 	1.1052631578947
scalar RSUExampleScenario.node[61].appl 	meanClusterHeadUtility 	1.7710131193999
scalar RSUExampleScenario.node[61].appl 	NumberofCH 	0.51351351351351
scalar RSUExampleScenario.node[61].appl 	NumberofON 	0.48648648648649
scalar RSUExampleScenario.node[61].appl 	NumberofFN 	0
scalar RSUExampleScenario.node[61].veinsmobility 	startTime 	147.1
scalar RSUExampleScenario.node[61].veinsmobility 	totalTime 	302.9
scalar RSUExampleScenario.node[61].veinsmobility 	stopTime 	450
scalar RSUExampleScenario.node[61].veinsmobility 	minSpeed 	0
scalar RSUExampleScenario.node[61].veinsmobility 	maxSpeed 	13.999770403148
scalar RSUExampleScenario.node[61].veinsmobility 	totalDistance 	1057.443334682
scalar RSUExampleScenario.node[61].veinsmobility 	totalCO2Emission 	468.11159380576
scalar RSUExampleScenario.node[62].appl 	meanClusterNodes 	0.6
scalar RSUExampleScenario.node[62].appl 	meanClusterHeadUtility 	1.9249278441582
scalar RSUExampleScenario.node[62].appl 	NumberofCH 	0.54054054054054
scalar RSUExampleScenario.node[62].appl 	NumberofON 	0.45945945945946
scalar RSUExampleScenario.node[62].appl 	NumberofFN 	0
scalar RSUExampleScenario.node[62].veinsmobility 	startTime 	149.5
scalar RSUExampleScenario.node[62].veinsmobility 	totalTime 	300.5
scalar RSUExampleScenario.node[62].veinsmobility 	stopTime 	450
scalar RSUExampleScenario.node[62].veinsmobility 	minSpeed 	0
scalar RSUExampleScenario.node[62].veinsmobility 	maxSpeed 	13.999964733834
scalar RSUExampleScenario.node[62].veinsmobility 	totalDistance 	1024.0971003404
scalar RSUExampleScenario.node[62].veinsmobility 	totalCO2Emission 	461.46770764039
scalar RSUExampleScenario.node[63].appl 	meanClusterNodes 	1.2222222222222
scalar RSUExampleScenario.node[63].appl 	meanClusterHeadUtility 	1.7326104641477
scalar RSUExampleScenario.node[63].appl 	NumberofCH 	0.48648648648649
scalar RSUExampleScenario.node[63].appl 	NumberofON 	0.51351351351351
scalar RSUExampleScenario.node[63].appl 	NumberofFN 	0
scalar RSUExampleScenario.node[63].veinsmobility 	startTime 	151.9
scalar RSUExampleScenario.node[63].veinsmobility 	totalTime 	298.1
scalar RSUExampleScenario.node[63].veinsmobility 	stopTime 	450
scalar RSUExampleScenario.node[63].veinsmobility 	minSpeed 	0
scalar RSUExampleScenario.node[63].veinsmobility 	maxSpeed 	13.999781034233
scalar RSUExampleScenario.node[63].veinsmobility 	totalDistance 	984.26939095036
scalar RSUExampleScenario.node[63].veinsmobility 	totalCO2Emission 	448.20679291016
scalar RSUExampleScenario.node[64].appl 	meanClusterNodes 	1.3888888888889
scalar RSUExampleScenario.node[64].appl 	meanClusterHeadUtility 	1.8524613098559
scalar RSUExampleScenario.node[64].appl 	NumberofCH 	0.48648648648649
scalar RSUExampleScenario.node[64].appl 	NumberofON 	0.51351351351351
scalar RSUExampleScenario.node[64].appl 	NumberofFN 	0
scalar RSUExampleScenario.node[64].veinsmobility 	startTime 	154.3
scalar RSUExampleScenario.node[64].veinsmobility 	totalTime 	295.7
scalar RSUExampleScenario.node[64].veinsmobility 	stopTime 	450
scalar RSUExampleScenario.node[64].veinsmobility 	minSpeed 	0
scalar RSUExampleScenario.node[64].veinsmobility 	maxSpeed 	13.999882204575
scalar RSUExampleScenario.node[64].veinsmobility 	totalDistance 	953.65494728625
scalar RSUExampleScenario.node[64].veinsmobility 	totalCO2Emission 	435.62545809445
scalar RSUExampleScenario.node[65].appl 	meanClusterNodes 	1.4736842105263
scalar RSUExampleScenario.node[65].appl 	meanClusterHeadUtility 	1.873324846799
scalar RSUExampleScenario.node[65].appl 	NumberofCH 	0.51351351351351
scalar RSUExampleScenario.node[65].appl 	NumberofON 	0.48648648648649
scalar RSUExampleScenario.node[65].appl 	NumberofFN 	0
scalar RSUExampleScenario.node[65].veinsmobility 	startTime 	156.7
scalar RSUExampleScenario.node[65].veinsmobility 	totalTime 	293.3
scalar RSUExampleScenario.node[65].veinsmobility 	stopTime 	450
scalar RSUExampleScenario.node[65].veinsmobility 	minSpeed 	0
scalar RSUExampleScenario.node[65].veinsmobility 	maxSpeed 	13.999930466875
scalar RSUExampleScenario.node[65].veinsmobility 	totalDistance 	940.30463097634
scalar RSUExampleScenario.node[65].veinsmobility 	totalCO2Emission 	429.86643994878
scalar RSUExampleScenario.node[66].appl 	meanClusterNodes 	0.42105263157895
scalar RSUExampleScenario.node[66].appl 	meanClusterHeadUtility 	1.9821027118573
scalar RSUExampleScenario.node[66].appl 	NumberofCH 	0.51351351351351
scalar RSUExampleScenario.node[66].appl 	NumberofON 	0.24324324324324
scalar RSUExampleScenario.node[66].appl 	NumberofFN 	0.24324324324324
scalar RSUExampleScenario.node[66].veinsmobility 	startTime 	159.1
scalar RSUExampleScenario.node[66].veinsmobility 	totalTime 	290.9
scalar RSUExampleScenario.node[66].veinsmobility 	stopTime 	450
scalar RSUExampleScenario.node[66].veinsmobility 	minSpeed 	0
scalar RSUExampleScenario.node[66].veinsmobility 	maxSpeed 	13.999889249357
scalar RSUExampleScenario.node[66].veinsmobility 	totalDistance 	928.24455816566
scalar RSUExampleScenario.node[66].veinsmobility 	totalCO2Emission 	424.7432179849
scalar RSUExampleScenario.node[67].appl 	meanClusterNodes 	0.73684210526316
scalar RSUExampleScenario.node[67].appl 	meanClusterHeadUtility 	1.7810633180519
scalar RSUExampleScenario.node[67].appl 	NumberofCH 	0.51351351351351
scalar RSUExampleScenario.node[67].appl 	NumberofON 	0.43243243243243
scalar RSUExampleScenario.node[67].appl 	NumberofFN 	0.054054054054054
scalar RSUExampleScenario.node[67].veinsmobility 	startTime 	161.5
scalar RSUExampleScenario.node[67].veinsmobility 	totalTime 	288.5
scalar RSUExampleScenario.node[67].veinsmobility 	stopTime 	450
scalar RSUExampleScenario.node[67].veinsmobility 	minSpeed 	0
scalar RSUExampleScenario.node[67].veinsmobility 	maxSpeed 	13.999764948403
scalar RSUExampleScenario.node[67].veinsmobility 	totalDistance 	912.91233848083
scalar RSUExampleScenario.node[67].veinsmobility 	totalCO2Emission 	422.45148858759
scalar RSUExampleScenario.node[68].appl 	meanClusterNodes 	0.44444444444444
scalar RSUExampleScenario.node[68].appl 	meanClusterHeadUtility 	1.8258841361039
scalar RSUExampleScenario.node[68].appl 	NumberofCH 	0.48648648648649
scalar RSUExampleScenario.node[68].appl 	NumberofON 	0.35135135135135
scalar RSUExampleScenario.node[68].appl 	NumberofFN 	0.16216216216216
scalar RSUExampleScenario.node[68].veinsmobility 	startTime 	163.9
scalar RSUExampleScenario.node[68].veinsmobility 	totalTime 	286.1
scalar RSUExampleScenario.node[68].veinsmobility 	stopTime 	450
scalar RSUExampleScenario.node[68].veinsmobility 	minSpeed 	0
scalar RSUExampleScenario.node[68].veinsmobility 	maxSpeed 	13.999903906628
scalar RSUExampleScenario.node[68].veinsmobility 	totalDistance 	893.87888325178
scalar RSUExampleScenario.node[68].veinsmobility 	totalCO2Emission 	419.97735079182
scalar RSUExampleScenario.node[69].appl 	meanClusterNodes 	0.88888888888889
scalar RSUExampleScenario.node[69].appl 	meanClusterHeadUtility 	1.7756488376512
scalar RSUExampleScenario.node[69].appl 	NumberofCH 	0.48648648648649
scalar RSUExampleScenario.node[69].appl 	NumberofON 	0.51351351351351
scalar RSUExampleScenario.node[69].appl 	NumberofFN 	0
scalar RSUExampleScenario.node[69].veinsmobility 	startTime 	166.3
scalar RSUExampleScenario.node[69].veinsmobility 	totalTime 	283.7
scalar RSUExampleScenario.node[69].veinsmobility 	stopTime 	450
scalar RSUExampleScenario.node[69].veinsmobility 	minSpeed 	0
scalar RSUExampleScenario.node[69].veinsmobility 	maxSpeed 	13.999967375412
scalar RSUExampleScenario.node[69].veinsmobility 	totalDistance 	860.75134544011
scalar RSUExampleScenario.node[69].veinsmobility 	totalCO2Emission 	412.77339213462
scalar RSUExampleScenario.node[7].appl 	meanClusterNodes 	0.42105263157895
scalar RSUExampleScenario.node[7].appl 	meanClusterHeadUtility 	1.983321846863
scalar RSUExampleScenario.node[7].appl 	NumberofCH 	0.51351351351351
scalar RSUExampleScenario.node[7].appl 	NumberofON 	0.45945945945946
scalar RSUExampleScenario.node[7].appl 	NumberofFN 	0.027027027027027
scalar RSUExampleScenario.node[7].veinsmobility 	startTime 	16.9
scalar RSUExampleScenario.node[7].veinsmobility 	totalTime 	433.1
scalar RSUExampleScenario.node[7].veinsmobility 	stopTime 	450
scalar RSUExampleScenario.node[7].veinsmobility 	minSpeed 	0
scalar RSUExampleScenario.node[7].veinsmobility 	maxSpeed 	13.999971749166
scalar RSUExampleScenario.node[7].veinsmobility 	totalDistance 	2884.9445538164
scalar RSUExampleScenario.node[7].veinsmobility 	totalCO2Emission 	776.29622545333
scalar RSUExampleScenario.node[70].appl 	meanClusterNodes 	1.4444444444444
scalar RSUExampleScenario.node[70].appl 	meanClusterHeadUtility 	2.0229134055565
scalar RSUExampleScenario.node[70].appl 	NumberofCH 	0.48648648648649
scalar RSUExampleScenario.node[70].appl 	NumberofON 	0.51351351351351
scalar RSUExampleScenario.node[70].appl 	NumberofFN 	0
scalar RSUExampleScenario.node[70].veinsmobility 	startTime 	168.8
scalar RSUExampleScenario.node[70].veinsmobility 	totalTime 	281.2
scalar RSUExampleScenario.node[70].veinsmobility 	stopTime 	450
scalar RSUExampleScenario.node[70].veinsmobility 	minSpeed 	0
scalar RSUExampleScenario.node[70].veinsmobility 	maxSpeed 	13.999681979774
scalar RSUExampleScenario.node[70].veinsmobility 	totalDistance 	827.5447256113
scalar RSUExampleScenario.node[70].veinsmobility 	totalCO2Emission 	406.40654517297
scalar RSUExampleScenario.node[71].appl 	meanClusterNodes 	0.33333333333333
scalar RSUExampleScenario.node[71].appl 	meanClusterHeadUtility 	1.9768592554461
scalar RSUExampleScenario.node[71].appl 	NumberofCH 	0.48648648648649
scalar RSUExampleScenario.node[71].appl 	NumberofON 	0.51351351351351
scalar RSUExampleScenario.node[71].appl 	NumberofFN 	0
scalar RSUExampleScenario.node[71].veinsmobility 	startTime 	171.2
scalar RSUExampleScenario.node[71].veinsmobility 	totalTime 	278.8
scalar RSUExampleScenario.node[71].veinsmobility 	stopTime 	450
scalar RSUExampleScenario.node[71].veinsmobility 	minSpeed 	0
scalar RSUExampleScenario.node[71].veinsmobility 	maxSpeed 	13.999669428701
scalar RSUExampleScenario.node[71].veinsmobility 	totalDistance 	794.15572341435
scalar RSUExampleScenario.node[71].veinsmobility 	totalCO2Emission 	403.22627635128
scalar RSUExampleScenario.node[72].appl 	meanClusterNodes 	1.0526315789474
scalar RSUExampleScenario.node[72].appl 	meanClusterHeadUtility 	1.7373365410394
scalar RSUExampleScenario.node[72].appl 	NumberofCH 	0.51351351351351
scalar RSUExampleScenario.node[72].appl 	NumberofON 	0.48648648648649
scalar RSUExampleScenario.node[72].appl 	NumberofFN 	0
scalar RSUExampleScenario.node[72].veinsmobility 	startTime 	173.6
scalar RSUExampleScenario.node[72].veinsmobility 	totalTime 	276.4
scalar RSUExampleScenario.node[72].veinsmobility 	stopTime 	450
scalar RSUExampleScenario.node[72].veinsmobility 	minSpeed 	0
scalar RSUExampleScenario.node[72].veinsmobility 	maxSpeed 	13.999663085591
scalar RSUExampleScenario.node[72].veinsmobility 	totalDistance 	759.86841963844
scalar RSUExampleScenario.node[72].veinsmobility 	totalCO2Emission 	396.6849226102
scalar RSUExampleScenario.node[73].appl 	meanClusterNodes 	1.1578947368421
scalar RSUExampleScenario.node[73].appl 	meanClusterHeadUtility 	1.8217151231519
scalar RSUExampleScenario.node[73].appl 	NumberofCH 	0.51351351351351
scalar RSUExampleScenario.node[73].appl 	NumberofON 	0.48648648648649
scalar RSUExampleScenario.node[73].appl 	NumberofFN 	0
scalar RSUExampleScenario.node[73].veinsmobility 	startTime 	176
scalar RSUExampleScenario.node[73].veinsmobility 	totalTime 	274
scalar RSUExampleScenario.node[73].veinsmobility 	stopTime 	450
scalar RSUExampleScenario.node[73].veinsmobility 	minSpeed 	0
scalar RSUExampleScenario.node[73].veinsmobility 	maxSpeed 	13.999774582128
scalar RSUExampleScenario.node[73].veinsmobility 	totalDistance 	726.19556278688
scalar RSUExampleScenario.node[73].veinsmobility 	totalCO2Emission 	388.84143391605
scalar RSUExampleScenario.node[74].appl 	meanClusterNodes 	1
scalar RSUExampleScenario.node[74].appl 	meanClusterHeadUtility 	1.8268599962594
scalar RSUExampleScenario.node[74].appl 	NumberofCH 	0.48648648648649
scalar RSUExampleScenario.node[74].appl 	NumberofON 	0.43243243243243
scalar RSUExampleScenario.node[74].appl 	NumberofFN 	0.081081081081081
scalar RSUExampleScenario.node[74].veinsmobility 	startTime 	178.4
scalar RSUExampleScenario.node[74].veinsmobility 	totalTime 	271.6
scalar RSUExampleScenario.node[74].veinsmobility 	stopTime 	450
scalar RSUExampleScenario.node[74].veinsmobility 	minSpeed 	0
scalar RSUExampleScenario.node[74].veinsmobility 	maxSpeed 	13.999909734637
scalar RSUExampleScenario.node[74].veinsmobility 	totalDistance 	692.32002038065
scalar RSUExampleScenario.node[74].veinsmobility 	totalCO2Emission 	385.40196183465
scalar RSUExampleScenario.node[75].appl 	meanClusterNodes 	0.55555555555556
scalar RSUExampleScenario.node[75].appl 	meanClusterHeadUtility 	1.8104661561028
scalar RSUExampleScenario.node[75].appl 	NumberofCH 	0.48648648648649
scalar RSUExampleScenario.node[75].appl 	NumberofON 	0.51351351351351
scalar RSUExampleScenario.node[75].appl 	NumberofFN 	0
scalar RSUExampleScenario.node[75].veinsmobility 	startTime 	180.8
scalar RSUExampleScenario.node[75].veinsmobility 	totalTime 	269.2
scalar RSUExampleScenario.node[75].veinsmobility 	stopTime 	450
scalar RSUExampleScenario.node[75].veinsmobility 	minSpeed 	0
scalar RSUExampleScenario.node[75].veinsmobility 	maxSpeed 	13.999771013744
scalar RSUExampleScenario.node[75].veinsmobility 	totalDistance 	656.52271898437
scalar RSUExampleScenario.node[75].veinsmobility 	totalCO2Emission 	379.30550554614
scalar RSUExampleScenario.node[76].appl 	meanClusterNodes 	0.77777777777778
scalar RSUExampleScenario.node[76].appl 	meanClusterHeadUtility 	2.0893296091369
scalar RSUExampleScenario.node[76].appl 	NumberofCH 	0.48648648648649
scalar RSUExampleScenario.node[76].appl 	NumberofON 	0.51351351351351
scalar RSUExampleScenario.node[76].appl 	NumberofFN 	0
scalar RSUExampleScenario.node[76].veinsmobility 	startTime 	183.2
scalar RSUExampleScenario.node[76].veinsmobility 	totalTime 	266.8
scalar RSUExampleScenario.node[76].veinsmobility 	stopTime 	450
scalar RSUExampleScenario.node[76].veinsmobility 	minSpeed 	0
scalar RSUExampleScenario.node[76].veinsmobility 	maxSpeed 	13.999166120137
scalar RSUExampleScenario.node[76].veinsmobility 	totalDistance 	625.64152455557
scalar RSUExampleScenario.node[76].veinsmobility 	totalCO2Emission 	374.67596431991
scalar RSUExampleScenario.node[77].appl 	meanClusterNodes 	0.55
scalar RSUExampleScenario.node[77].appl 	meanClusterHeadUtility 	1.632007576167
scalar RSUExampleScenario.node[77].appl 	NumberofCH 	0.54054054054054
scalar RSUExampleScenario.node[77].appl 	NumberofON 	0.45945945945946
scalar RSUExampleScenario.node[77].appl 	NumberofFN 	0
scalar RSUExampleScenario.node[77].veinsmobility 	startTime 	185.6
scalar RSUExampleScenario.node[77].veinsmobility 	totalTime 	264.4
scalar RSUExampleScenario.node[77].veinsmobility 	stopTime 	450
scalar RSUExampleScenario.node[77].veinsmobility 	minSpeed 	0
scalar RSUExampleScenario.node[77].veinsmobility 	maxSpeed 	13.998131979757
scalar RSUExampleScenario.node[77].veinsmobility 	totalDistance 	591.29054599146
scalar RSUExampleScenario.node[77].veinsmobility 	totalCO2Emission 	368.07809257584
scalar RSUExampleScenario.node[78].appl 	meanClusterNodes 	0.72222222222222
scalar RSUExampleScenario.node[78].appl 	meanClusterHeadUtility 	2.2870653454333
scalar RSUExampleScenario.node[78].appl 	NumberofCH 	0.48648648648649
scalar RSUExampleScenario.node[78].appl 	NumberofON 	0.51351351351351
scalar RSUExampleScenario.node[78].appl 	NumberofFN 	0
scalar RSUExampleScenario.node[78].veinsmobility 	startTime 	188
scalar RSUExampleScenario.node[78].veinsmobility 	totalTime 	262
scalar RSUExampleScenario.node[78].veinsmobility 	stopTime 	450
scalar RSUExampleScenario.node[78].veinsmobility 	minSpeed 	0
scalar RSUExampleScenario.node[78].veinsmobility 	maxSpeed 	13.999680561568
scalar RSUExampleScenario.node[78].veinsmobility 	totalDistance 	558.33130484938
scalar RSUExampleScenario.node[78].veinsmobility 	totalCO2Emission 	362.4482090193
scalar RSUExampleScenario.node[79].appl 	meanClusterNodes 	0.5
scalar RSUExampleScenario.node[79].appl 	meanClusterHeadUtility 	1.73046111003
scalar RSUExampleScenario.node[79].appl 	NumberofCH 	0.48648648648649
scalar RSUExampleScenario.node[79].appl 	NumberofON 	0.51351351351351
scalar RSUExampleScenario.node[79].appl 	NumberofFN 	0
scalar RSUExampleScenario.node[79].veinsmobility 	startTime 	190.4
scalar RSUExampleScenario.node[79].veinsmobility 	totalTime 	259.6
scalar RSUExampleScenario.node[79].veinsmobility 	stopTime 	450
scalar RSUExampleScenario.node[79].veinsmobility 	minSpeed 	0
scalar RSUExampleScenario.node[79].veinsmobility 	maxSpeed 	13.999959415749
scalar RSUExampleScenario.node[79].veinsmobility 	totalDistance 	524.37980407256
scalar RSUExampleScenario.node[79].veinsmobility 	totalCO2Emission 	358.56788754505
scalar RSUExampleScenario.node[8].appl 	meanClusterNodes 	1.3333333333333
scalar RSUExampleScenario.node[8].appl 	meanClusterHeadUtility 	1.8981360967336
scalar RSUExampleScenario.node[8].appl 	NumberofCH 	0.48648648648649
scalar RSUExampleScenario.node[8].appl 	NumberofON 	0.24324324324324
scalar RSUExampleScenario.node[8].appl 	NumberofFN 	0.27027027027027
scalar RSUExampleScenario.node[8].veinsmobility 	startTime 	19.3
scalar RSUExampleScenario.node[8].veinsmobility 	totalTime 	430.7
scalar RSUExampleScenario.node[8].veinsmobility 	stopTime 	450
scalar RSUExampleScenario.node[8].veinsmobility 	minSpeed 	0
scalar RSUExampleScenario.node[8].veinsmobility 	maxSpeed 	13.999989670082
scalar RSUExampleScenario.node[8].veinsmobility 	totalDistance 	2859.7074823732
scalar RSUExampleScenario.node[8].veinsmobility 	totalCO2Emission 	768.35940159323
scalar RSUExampleScenario.node[80].appl 	meanClusterNodes 	0.78947368421053
scalar RSUExampleScenario.node[80].appl 	meanClusterHeadUtility 	2.094302579291
scalar RSUExampleScenario.node[80].appl 	NumberofCH 	0.51351351351351
scalar RSUExampleScenario.node[80].appl 	NumberofON 	0.48648648648649
scalar RSUExampleScenario.node[80].appl 	NumberofFN 	0
scalar RSUExampleScenario.node[80].veinsmobility 	startTime 	192.9
scalar RSUExampleScenario.node[80].veinsmobility 	totalTime 	257.1
scalar RSUExampleScenario.node[80].veinsmobility 	stopTime 	450
scalar RSUExampleScenario.node[80].veinsmobility 	minSpeed 	0
scalar RSUExampleScenario.node[80].veinsmobility 	maxSpeed 	13.998867480713
scalar RSUExampleScenario.node[80].veinsmobility 	totalDistance 	490.57808397718
scalar RSUExampleScenario.node[80].veinsmobility 	totalCO2Emission 	351.08600082948
scalar RSUExampleScenario.node[81].appl 	meanClusterNodes 	0.66666666666667
scalar RSUExampleScenario.node[81].appl 	meanClusterHeadUtility 	2.0620944906371
scalar RSUExampleScenario.node[81].appl 	NumberofCH 	0.48648648648649
scalar RSUExampleScenario.node[81].appl 	NumberofON 	0.43243243243243
scalar RSUExampleScenario.node[81].appl 	NumberofFN 	0.081081081081081
scalar RSUExampleScenario.node[81].veinsmobility 	startTime 	195.3
scalar RSUExampleScenario.node[81].veinsmobility 	totalTime 	254.7
scalar RSUExampleScenario.node[81].veinsmobility 	stopTime 	450
scalar RSUExampleScenario.node[81].veinsmobility 	minSpeed 	0
scalar RSUExampleScenario.node[81].veinsmobility 	maxSpeed 	13.99995144295
scalar RSUExampleScenario.node[81].veinsmobility 	totalDistance 	454.58416077246
scalar RSUExampleScenario.node[81].veinsmobility 	totalCO2Emission 	344.31548746115
scalar RSUExampleScenario.node[82].appl 	meanClusterNodes 	1.2105263157895
scalar RSUExampleScenario.node[82].appl 	meanClusterHeadUtility 	1.7234339272818
scalar RSUExampleScenario.node[82].appl 	NumberofCH 	0.51351351351351
scalar RSUExampleScenario.node[82].appl 	NumberofON 	0.48648648648649
scalar RSUExampleScenario.node[82].appl 	NumberofFN 	0
scalar RSUExampleScenario.node[82].veinsmobility 	startTime 	197.7
scalar RSUExampleScenario.node[82].veinsmobility 	totalTime 	252.3
scalar RSUExampleScenario.node[82].veinsmobility 	stopTime 	450
scalar RSUExampleScenario.node[82].veinsmobility 	minSpeed 	0
scalar RSUExampleScenario.node[82].veinsmobility 	maxSpeed 	13.998009158394
scalar RSUExampleScenario.node[82].veinsmobility 	totalDistance 	423.21958802776
scalar RSUExampleScenario.node[82].veinsmobility 	totalCO2Emission 	339.12545660852
scalar RSUExampleScenario.node[83].appl 	meanClusterNodes 	1.2105263157895
scalar RSUExampleScenario.node[83].appl 	meanClusterHeadUtility 	2.1638490887354
scalar RSUExampleScenario.node[83].appl 	NumberofCH 	0.51351351351351
scalar RSUExampleScenario.node[83].appl 	NumberofON 	0.48648648648649
scalar RSUExampleScenario.node[83].appl 	NumberofFN 	0
scalar RSUExampleScenario.node[83].veinsmobility 	startTime 	200.1
scalar RSUExampleScenario.node[83].veinsmobility 	totalTime 	249.9
scalar RSUExampleScenario.node[83].veinsmobility 	stopTime 	450
scalar RSUExampleScenario.node[83].veinsmobility 	minSpeed 	0
scalar RSUExampleScenario.node[83].veinsmobility 	maxSpeed 	13.995841606094
scalar RSUExampleScenario.node[83].veinsmobility 	totalDistance 	388.9974807305
scalar RSUExampleScenario.node[83].veinsmobility 	totalCO2Emission 	334.21718409898
scalar RSUExampleScenario.node[84].appl 	meanClusterNodes 	0.77777777777778
scalar RSUExampleScenario.node[84].appl 	meanClusterHeadUtility 	1.792188019608
scalar RSUExampleScenario.node[84].appl 	NumberofCH 	0.48648648648649
scalar RSUExampleScenario.node[84].appl 	NumberofON 	0.51351351351351
scalar RSUExampleScenario.node[84].appl 	NumberofFN 	0
scalar RSUExampleScenario.node[84].veinsmobility 	startTime 	202.5
scalar RSUExampleScenario.node[84].veinsmobility 	totalTime 	247.5
scalar RSUExampleScenario.node[84].veinsmobility 	stopTime 	450
scalar RSUExampleScenario.node[84].veinsmobility 	minSpeed 	0
scalar RSUExampleScenario.node[84].veinsmobility 	maxSpeed 	13.999184023922
scalar RSUExampleScenario.node[84].veinsmobility 	totalDistance 	354.6122274803
scalar RSUExampleScenario.node[84].veinsmobility 	totalCO2Emission 	329.0738330098
scalar RSUExampleScenario.node[85].appl 	meanClusterNodes 	1
scalar RSUExampleScenario.node[85].appl 	meanClusterHeadUtility 	2.0246701590398
scalar RSUExampleScenario.node[85].appl 	NumberofCH 	0.48648648648649
scalar RSUExampleScenario.node[85].appl 	NumberofON 	0.48648648648649
scalar RSUExampleScenario.node[85].appl 	NumberofFN 	0.027027027027027
scalar RSUExampleScenario.node[85].veinsmobility 	startTime 	204.9
scalar RSUExampleScenario.node[85].veinsmobility 	totalTime 	245.1
scalar RSUExampleScenario.node[85].veinsmobility 	stopTime 	450
scalar RSUExampleScenario.node[85].veinsmobility 	minSpeed 	0
scalar RSUExampleScenario.node[85].veinsmobility 	maxSpeed 	13.999980922514
scalar RSUExampleScenario.node[85].veinsmobility 	totalDistance 	322.41295704491
scalar RSUExampleScenario.node[85].veinsmobility 	totalCO2Emission 	322.87263793767
scalar RSUExampleScenario.node[86].appl 	meanClusterNodes 	1.3529411764706
scalar RSUExampleScenario.node[86].appl 	meanClusterHeadUtility 	2.0207682689633
scalar RSUExampleScenario.node[86].appl 	NumberofCH 	0.45945945945946
scalar RSUExampleScenario.node[86].appl 	NumberofON 	0.54054054054054
scalar RSUExampleScenario.node[86].appl 	NumberofFN 	0
scalar RSUExampleScenario.node[86].veinsmobility 	startTime 	207.3
scalar RSUExampleScenario.node[86].veinsmobility 	totalTime 	242.7
scalar RSUExampleScenario.node[86].veinsmobility 	stopTime 	450
scalar RSUExampleScenario.node[86].veinsmobility 	minSpeed 	0
scalar RSUExampleScenario.node[86].veinsmobility 	maxSpeed 	13.930746347664
scalar RSUExampleScenario.node[86].veinsmobility 	totalDistance 	289.83584707229
