version 2
run statistic3-53-20150324-22:59:53-14364
attr c 9
attr configname statistic3
attr datetime 20150324-22:59:53
attr experiment statistic3
attr inifile omnetpp.ini
attr iterationvars "$p=1/10, $c=9"
attr iterationvars2 "$p=1/10, $c=9, $repetition=53"
attr measurement "$p=1/10, $c=9"
attr network RSUExampleScenario
attr p 1/10
attr processid 14364
attr repetition 53
attr replication #53
attr resultdir results
attr runnumber 53
attr seedset 53

scalar . 	c 	9
scalar RSUExampleScenario.rsu[0].appl 	NumberofCH 	9
scalar RSUExampleScenario.rsu[0].appl 	NumberofON 	74
scalar RSUExampleScenario.rsu[0].appl 	NumberofFN 	17
scalar RSUExampleScenario.rsu[0].appl 	meanClusterNodes 	8.2222222222222
scalar RSUExampleScenario.rsu[0].appl 	varClusterNodes 	1.227262335243
scalar RSUExampleScenario.rsu[0].appl 	sumCHutility 	338.62515189163
scalar RSUExampleScenario.rsu[0].appl 	meanCHutility 	37.625016876848
scalar RSUExampleScenario.rsu[0].appl 	varCHutility 	0.92871002712681
scalar RSUExampleScenario.rsu[0].appl 	sumDiffCHutility 	-32.089741737666
scalar RSUExampleScenario.rsu[0].appl 	meanDiffCHutility 	-3.5655268597407
scalar RSUExampleScenario.rsu[0].appl 	varDiffCHutility 	0.65577987638268
scalar RSUExampleScenario.rsu[0].appl 	expectedCHutility 	306.53541015397
scalar RSUExampleScenario.rsu[0].appl 	meanExpectedCHutility 	34.059490017107
scalar RSUExampleScenario.rsu[0].appl 	varExpectedCHutility 	0.71431814073158
scalar RSUExampleScenario.node[0].veinsmobility 	startTime 	0.1
scalar RSUExampleScenario.node[0].veinsmobility 	totalTime 	349.9
scalar RSUExampleScenario.node[0].veinsmobility 	stopTime 	350
scalar RSUExampleScenario.node[0].veinsmobility 	minSpeed 	0
scalar RSUExampleScenario.node[0].veinsmobility 	maxSpeed 	13.999960681405
scalar RSUExampleScenario.node[0].veinsmobility 	totalDistance 	3132.3586055631
scalar RSUExampleScenario.node[0].veinsmobility 	totalCO2Emission 	743.74523731723
scalar RSUExampleScenario.node[1].veinsmobility 	startTime 	2.5
scalar RSUExampleScenario.node[1].veinsmobility 	totalTime 	347.5
scalar RSUExampleScenario.node[1].veinsmobility 	stopTime 	350
scalar RSUExampleScenario.node[1].veinsmobility 	minSpeed 	0
scalar RSUExampleScenario.node[1].veinsmobility 	maxSpeed 	13.999968267409
scalar RSUExampleScenario.node[1].veinsmobility 	totalDistance 	3080.8714282453
scalar RSUExampleScenario.node[1].veinsmobility 	totalCO2Emission 	730.6436858318
scalar RSUExampleScenario.node[10].veinsmobility 	startTime 	24.2
scalar RSUExampleScenario.node[10].veinsmobility 	totalTime 	325.8
scalar RSUExampleScenario.node[10].veinsmobility 	stopTime 	350
scalar RSUExampleScenario.node[10].veinsmobility 	minSpeed 	0
scalar RSUExampleScenario.node[10].veinsmobility 	maxSpeed 	13.999992065823
scalar RSUExampleScenario.node[10].veinsmobility 	totalDistance 	2794.2061834772
scalar RSUExampleScenario.node[10].veinsmobility 	totalCO2Emission 	661.15128730915
scalar RSUExampleScenario.node[11].veinsmobility 	startTime 	26.6
scalar RSUExampleScenario.node[11].veinsmobility 	totalTime 	323.4
scalar RSUExampleScenario.node[11].veinsmobility 	stopTime 	350
scalar RSUExampleScenario.node[11].veinsmobility 	minSpeed 	0
scalar RSUExampleScenario.node[11].veinsmobility 	maxSpeed 	13.999801821436
scalar RSUExampleScenario.node[11].veinsmobility 	totalDistance 	2754.0356306806
scalar RSUExampleScenario.node[11].veinsmobility 	totalCO2Emission 	653.91384890825
scalar RSUExampleScenario.node[12].veinsmobility 	startTime 	29
scalar RSUExampleScenario.node[12].veinsmobility 	totalTime 	321
scalar RSUExampleScenario.node[12].veinsmobility 	stopTime 	350
scalar RSUExampleScenario.node[12].veinsmobility 	minSpeed 	0
scalar RSUExampleScenario.node[12].veinsmobility 	maxSpeed 	13.999997949707
scalar RSUExampleScenario.node[12].veinsmobility 	totalDistance 	2722.7204038199
scalar RSUExampleScenario.node[12].veinsmobility 	totalCO2Emission 	650.07149843093
scalar RSUExampleScenario.node[13].veinsmobility 	startTime 	31.4
scalar RSUExampleScenario.node[13].veinsmobility 	totalTime 	318.6
scalar RSUExampleScenario.node[13].veinsmobility 	stopTime 	350
scalar RSUExampleScenario.node[13].veinsmobility 	minSpeed 	0
scalar RSUExampleScenario.node[13].veinsmobility 	maxSpeed 	13.999994654795
scalar RSUExampleScenario.node[13].veinsmobility 	totalDistance 	2680.0610524933
scalar RSUExampleScenario.node[13].veinsmobility 	totalCO2Emission 	643.12679060611
scalar RSUExampleScenario.node[14].veinsmobility 	startTime 	33.8
scalar RSUExampleScenario.node[14].veinsmobility 	totalTime 	316.2
scalar RSUExampleScenario.node[14].veinsmobility 	stopTime 	350
scalar RSUExampleScenario.node[14].veinsmobility 	minSpeed 	0
scalar RSUExampleScenario.node[14].veinsmobility 	maxSpeed 	13.999929878011
scalar RSUExampleScenario.node[14].veinsmobility 	totalDistance 	2653.0968022063
scalar RSUExampleScenario.node[14].veinsmobility 	totalCO2Emission 	633.82796134032
scalar RSUExampleScenario.node[15].veinsmobility 	startTime 	36.2
scalar RSUExampleScenario.node[15].veinsmobility 	totalTime 	313.8
scalar RSUExampleScenario.node[15].veinsmobility 	stopTime 	350
scalar RSUExampleScenario.node[15].veinsmobility 	minSpeed 	0
scalar RSUExampleScenario.node[15].veinsmobility 	maxSpeed 	13.99995189016
scalar RSUExampleScenario.node[15].veinsmobility 	totalDistance 	2613.9653779179
scalar RSUExampleScenario.node[15].veinsmobility 	totalCO2Emission 	633.01444462634
scalar RSUExampleScenario.node[16].veinsmobility 	startTime 	38.6
scalar RSUExampleScenario.node[16].veinsmobility 	totalTime 	311.4
scalar RSUExampleScenario.node[16].veinsmobility 	stopTime 	350
scalar RSUExampleScenario.node[16].veinsmobility 	minSpeed 	0
scalar RSUExampleScenario.node[16].veinsmobility 	maxSpeed 	13.999893383328
scalar RSUExampleScenario.node[16].veinsmobility 	totalDistance 	2583.4242881043
scalar RSUExampleScenario.node[16].veinsmobility 	totalCO2Emission 	627.00430097702
scalar RSUExampleScenario.node[17].veinsmobility 	startTime 	41
scalar RSUExampleScenario.node[17].veinsmobility 	totalTime 	309
scalar RSUExampleScenario.node[17].veinsmobility 	stopTime 	350
scalar RSUExampleScenario.node[17].veinsmobility 	minSpeed 	0
scalar RSUExampleScenario.node[17].veinsmobility 	maxSpeed 	13.99999289568
scalar RSUExampleScenario.node[17].veinsmobility 	totalDistance 	2540.2188666668
scalar RSUExampleScenario.node[17].veinsmobility 	totalCO2Emission 	619.04216339518
scalar RSUExampleScenario.node[18].veinsmobility 	startTime 	43.4
scalar RSUExampleScenario.node[18].veinsmobility 	totalTime 	306.6
scalar RSUExampleScenario.node[18].veinsmobility 	stopTime 	350
scalar RSUExampleScenario.node[18].veinsmobility 	minSpeed 	0
scalar RSUExampleScenario.node[18].veinsmobility 	maxSpeed 	13.999895694712
scalar RSUExampleScenario.node[18].veinsmobility 	totalDistance 	2508.9247472834
scalar RSUExampleScenario.node[18].veinsmobility 	totalCO2Emission 	615.83363227581
scalar RSUExampleScenario.node[19].veinsmobility 	startTime 	45.8
scalar RSUExampleScenario.node[19].veinsmobility 	totalTime 	304.2
scalar RSUExampleScenario.node[19].veinsmobility 	stopTime 	350
scalar RSUExampleScenario.node[19].veinsmobility 	minSpeed 	0
scalar RSUExampleScenario.node[19].veinsmobility 	maxSpeed 	13.999965342826
scalar RSUExampleScenario.node[19].veinsmobility 	totalDistance 	2471.7298052437
scalar RSUExampleScenario.node[19].veinsmobility 	totalCO2Emission 	605.23702314033
scalar RSUExampleScenario.node[2].veinsmobility 	startTime 	4.9
scalar RSUExampleScenario.node[2].veinsmobility 	totalTime 	345.1
scalar RSUExampleScenario.node[2].veinsmobility 	stopTime 	350
scalar RSUExampleScenario.node[2].veinsmobility 	minSpeed 	0
scalar RSUExampleScenario.node[2].veinsmobility 	maxSpeed 	13.999881919359
scalar RSUExampleScenario.node[2].veinsmobility 	totalDistance 	3040.1307934108
scalar RSUExampleScenario.node[2].veinsmobility 	totalCO2Emission 	720.53760718909
scalar RSUExampleScenario.node[20].veinsmobility 	startTime 	48.3
scalar RSUExampleScenario.node[20].veinsmobility 	totalTime 	301.7
scalar RSUExampleScenario.node[20].veinsmobility 	stopTime 	350
scalar RSUExampleScenario.node[20].veinsmobility 	minSpeed 	0
scalar RSUExampleScenario.node[20].veinsmobility 	maxSpeed 	13.999934236389
scalar RSUExampleScenario.node[20].veinsmobility 	totalDistance 	2443.3323111065
scalar RSUExampleScenario.node[20].veinsmobility 	totalCO2Emission 	602.93053040045
scalar RSUExampleScenario.node[21].veinsmobility 	startTime 	50.7
scalar RSUExampleScenario.node[21].veinsmobility 	totalTime 	299.3
scalar RSUExampleScenario.node[21].veinsmobility 	stopTime 	350
scalar RSUExampleScenario.node[21].veinsmobility 	minSpeed 	0
scalar RSUExampleScenario.node[21].veinsmobility 	maxSpeed 	13.999943542825
scalar RSUExampleScenario.node[21].veinsmobility 	totalDistance 	2403.6615567903
scalar RSUExampleScenario.node[21].veinsmobility 	totalCO2Emission 	599.09849928353
scalar RSUExampleScenario.node[22].veinsmobility 	startTime 	53.1
scalar RSUExampleScenario.node[22].veinsmobility 	totalTime 	296.9
scalar RSUExampleScenario.node[22].veinsmobility 	stopTime 	350
scalar RSUExampleScenario.node[22].veinsmobility 	minSpeed 	0
scalar RSUExampleScenario.node[22].veinsmobility 	maxSpeed 	13.999984162671
scalar RSUExampleScenario.node[22].veinsmobility 	totalDistance 	2375.2842090645
scalar RSUExampleScenario.node[22].veinsmobility 	totalCO2Emission 	588.68092429904
scalar RSUExampleScenario.node[23].veinsmobility 	startTime 	55.5
scalar RSUExampleScenario.node[23].veinsmobility 	totalTime 	294.5
scalar RSUExampleScenario.node[23].veinsmobility 	stopTime 	350
scalar RSUExampleScenario.node[23].veinsmobility 	minSpeed 	0
scalar RSUExampleScenario.node[23].veinsmobility 	maxSpeed 	13.999996380312
scalar RSUExampleScenario.node[23].veinsmobility 	totalDistance 	2337.0566829189
scalar RSUExampleScenario.node[23].veinsmobility 	totalCO2Emission 	583.83482418252
scalar RSUExampleScenario.node[24].veinsmobility 	startTime 	57.9
scalar RSUExampleScenario.node[24].veinsmobility 	totalTime 	292.1
scalar RSUExampleScenario.node[24].veinsmobility 	stopTime 	350
scalar RSUExampleScenario.node[24].veinsmobility 	minSpeed 	0
scalar RSUExampleScenario.node[24].veinsmobility 	maxSpeed 	13.999801945686
scalar RSUExampleScenario.node[24].veinsmobility 	totalDistance 	2306.2662985173
scalar RSUExampleScenario.node[24].veinsmobility 	totalCO2Emission 	585.86577884124
scalar RSUExampleScenario.node[25].veinsmobility 	startTime 	60.3
scalar RSUExampleScenario.node[25].veinsmobility 	totalTime 	289.7
scalar RSUExampleScenario.node[25].veinsmobility 	stopTime 	350
scalar RSUExampleScenario.node[25].veinsmobility 	minSpeed 	0
scalar RSUExampleScenario.node[25].veinsmobility 	maxSpeed 	13.999988800453
scalar RSUExampleScenario.node[25].veinsmobility 	totalDistance 	2268.2808147051
scalar RSUExampleScenario.node[25].veinsmobility 	totalCO2Emission 	573.59047215378
scalar RSUExampleScenario.node[26].veinsmobility 	startTime 	62.7
scalar RSUExampleScenario.node[26].veinsmobility 	totalTime 	287.3
scalar RSUExampleScenario.node[26].veinsmobility 	stopTime 	350
scalar RSUExampleScenario.node[26].veinsmobility 	minSpeed 	0
scalar RSUExampleScenario.node[26].veinsmobility 	maxSpeed 	13.999979937351
scalar RSUExampleScenario.node[26].veinsmobility 	totalDistance 	2239.2373103085
scalar RSUExampleScenario.node[26].veinsmobility 	totalCO2Emission 	565.72730046845
scalar RSUExampleScenario.node[27].veinsmobility 	startTime 	65.1
scalar RSUExampleScenario.node[27].veinsmobility 	totalTime 	284.9
scalar RSUExampleScenario.node[27].veinsmobility 	stopTime 	350
scalar RSUExampleScenario.node[27].veinsmobility 	minSpeed 	0
scalar RSUExampleScenario.node[27].veinsmobility 	maxSpeed 	13.999874972797
scalar RSUExampleScenario.node[27].veinsmobility 	totalDistance 	2202.6496199831
scalar RSUExampleScenario.node[27].veinsmobility 	totalCO2Emission 	561.78627086687
scalar RSUExampleScenario.node[28].veinsmobility 	startTime 	67.5
scalar RSUExampleScenario.node[28].veinsmobility 	totalTime 	282.5
scalar RSUExampleScenario.node[28].veinsmobility 	stopTime 	350
scalar RSUExampleScenario.node[28].veinsmobility 	minSpeed 	0
scalar RSUExampleScenario.node[28].veinsmobility 	maxSpeed 	13.999981249347
scalar RSUExampleScenario.node[28].veinsmobility 	totalDistance 	2169.7633573294
scalar RSUExampleScenario.node[28].veinsmobility 	totalCO2Emission 	558.20619878325
scalar RSUExampleScenario.node[29].veinsmobility 	startTime 	69.9
scalar RSUExampleScenario.node[29].veinsmobility 	totalTime 	280.1
scalar RSUExampleScenario.node[29].veinsmobility 	stopTime 	350
scalar RSUExampleScenario.node[29].veinsmobility 	minSpeed 	0
scalar RSUExampleScenario.node[29].veinsmobility 	maxSpeed 	13.999944257513
scalar RSUExampleScenario.node[29].veinsmobility 	totalDistance 	2134.1065441902
scalar RSUExampleScenario.node[29].veinsmobility 	totalCO2Emission 	555.11757472566
scalar RSUExampleScenario.node[3].veinsmobility 	startTime 	7.3
scalar RSUExampleScenario.node[3].veinsmobility 	totalTime 	342.7
scalar RSUExampleScenario.node[3].veinsmobility 	stopTime 	350
scalar RSUExampleScenario.node[3].veinsmobility 	minSpeed 	0
scalar RSUExampleScenario.node[3].veinsmobility 	maxSpeed 	13.999943386915
scalar RSUExampleScenario.node[3].veinsmobility 	totalDistance 	2993.6118285647
scalar RSUExampleScenario.node[3].veinsmobility 	totalCO2Emission 	716.56215901065
scalar RSUExampleScenario.node[30].veinsmobility 	startTime 	72.4
scalar RSUExampleScenario.node[30].veinsmobility 	totalTime 	277.6
scalar RSUExampleScenario.node[30].veinsmobility 	stopTime 	350
scalar RSUExampleScenario.node[30].veinsmobility 	minSpeed 	0
scalar RSUExampleScenario.node[30].veinsmobility 	maxSpeed 	13.999972540643
scalar RSUExampleScenario.node[30].veinsmobility 	totalDistance 	2100.6518207688
scalar RSUExampleScenario.node[30].veinsmobility 	totalCO2Emission 	548.1336527369
scalar RSUExampleScenario.node[31].veinsmobility 	startTime 	74.8
scalar RSUExampleScenario.node[31].veinsmobility 	totalTime 	275.2
scalar RSUExampleScenario.node[31].veinsmobility 	stopTime 	350
scalar RSUExampleScenario.node[31].veinsmobility 	minSpeed 	0
scalar RSUExampleScenario.node[31].veinsmobility 	maxSpeed 	13.999771736271
scalar RSUExampleScenario.node[31].veinsmobility 	totalDistance 	2067.3197677891
scalar RSUExampleScenario.node[31].veinsmobility 	totalCO2Emission 	543.89146556802
scalar RSUExampleScenario.node[32].veinsmobility 	startTime 	77.2
scalar RSUExampleScenario.node[32].veinsmobility 	totalTime 	272.8
scalar RSUExampleScenario.node[32].veinsmobility 	stopTime 	350
scalar RSUExampleScenario.node[32].veinsmobility 	minSpeed 	0
scalar RSUExampleScenario.node[32].veinsmobility 	maxSpeed 	13.999944161926
scalar RSUExampleScenario.node[32].veinsmobility 	totalDistance 	2032.5448605746
scalar RSUExampleScenario.node[32].veinsmobility 	totalCO2Emission 	535.55669927202
scalar RSUExampleScenario.node[33].veinsmobility 	startTime 	79.6
scalar RSUExampleScenario.node[33].veinsmobility 	totalTime 	270.4
scalar RSUExampleScenario.node[33].veinsmobility 	stopTime 	350
scalar RSUExampleScenario.node[33].veinsmobility 	minSpeed 	0
scalar RSUExampleScenario.node[33].veinsmobility 	maxSpeed 	13.999625905731
scalar RSUExampleScenario.node[33].veinsmobility 	totalDistance 	1999.6463844537
scalar RSUExampleScenario.node[33].veinsmobility 	totalCO2Emission 	531.04003477546
scalar RSUExampleScenario.node[34].veinsmobility 	startTime 	82
scalar RSUExampleScenario.node[34].veinsmobility 	totalTime 	268
scalar RSUExampleScenario.node[34].veinsmobility 	stopTime 	350
scalar RSUExampleScenario.node[34].veinsmobility 	minSpeed 	0
scalar RSUExampleScenario.node[34].veinsmobility 	maxSpeed 	13.999945118455
scalar RSUExampleScenario.node[34].veinsmobility 	totalDistance 	1966.3614356609
scalar RSUExampleScenario.node[34].veinsmobility 	totalCO2Emission 	527.02061582153
scalar RSUExampleScenario.node[35].veinsmobility 	startTime 	84.4
scalar RSUExampleScenario.node[35].veinsmobility 	totalTime 	265.6
scalar RSUExampleScenario.node[35].veinsmobility 	stopTime 	350
scalar RSUExampleScenario.node[35].veinsmobility 	minSpeed 	0
scalar RSUExampleScenario.node[35].veinsmobility 	maxSpeed 	13.999984671809
scalar RSUExampleScenario.node[35].veinsmobility 	totalDistance 	1933.9644854904
scalar RSUExampleScenario.node[35].veinsmobility 	totalCO2Emission 	516.45574279762
scalar RSUExampleScenario.node[36].veinsmobility 	startTime 	86.8
scalar RSUExampleScenario.node[36].veinsmobility 	totalTime 	263.2
scalar RSUExampleScenario.node[36].veinsmobility 	stopTime 	350
scalar RSUExampleScenario.node[36].veinsmobility 	minSpeed 	0
scalar RSUExampleScenario.node[36].veinsmobility 	maxSpeed 	13.999922540355
scalar RSUExampleScenario.node[36].veinsmobility 	totalDistance 	1898.393066563
scalar RSUExampleScenario.node[36].veinsmobility 	totalCO2Emission 	514.76379285353
scalar RSUExampleScenario.node[37].veinsmobility 	startTime 	89.2
scalar RSUExampleScenario.node[37].veinsmobility 	totalTime 	260.8
scalar RSUExampleScenario.node[37].veinsmobility 	stopTime 	350
scalar RSUExampleScenario.node[37].veinsmobility 	minSpeed 	0
scalar RSUExampleScenario.node[37].veinsmobility 	maxSpeed 	13.999653754092
scalar RSUExampleScenario.node[37].veinsmobility 	totalDistance 	1865.0810860287
scalar RSUExampleScenario.node[37].veinsmobility 	totalCO2Emission 	507.57963465051
scalar RSUExampleScenario.node[38].veinsmobility 	startTime 	91.6
scalar RSUExampleScenario.node[38].veinsmobility 	totalTime 	258.4
scalar RSUExampleScenario.node[38].veinsmobility 	stopTime 	350
scalar RSUExampleScenario.node[38].veinsmobility 	minSpeed 	0
scalar RSUExampleScenario.node[38].veinsmobility 	maxSpeed 	13.999993388746
scalar RSUExampleScenario.node[38].veinsmobility 	totalDistance 	1830.913684677
scalar RSUExampleScenario.node[38].veinsmobility 	totalCO2Emission 	504.29512106031
scalar RSUExampleScenario.node[39].veinsmobility 	startTime 	94
scalar RSUExampleScenario.node[39].veinsmobility 	totalTime 	256
scalar RSUExampleScenario.node[39].veinsmobility 	stopTime 	350
scalar RSUExampleScenario.node[39].veinsmobility 	minSpeed 	0
scalar RSUExampleScenario.node[39].veinsmobility 	maxSpeed 	13.999862173707
scalar RSUExampleScenario.node[39].veinsmobility 	totalDistance 	1795.3783956552
scalar RSUExampleScenario.node[39].veinsmobility 	totalCO2Emission 	493.93618543791
scalar RSUExampleScenario.node[4].veinsmobility 	startTime 	9.7
scalar RSUExampleScenario.node[4].veinsmobility 	totalTime 	340.3
scalar RSUExampleScenario.node[4].veinsmobility 	stopTime 	350
scalar RSUExampleScenario.node[4].veinsmobility 	minSpeed 	0
scalar RSUExampleScenario.node[4].veinsmobility 	maxSpeed 	13.99974874344
scalar RSUExampleScenario.node[4].veinsmobility 	totalDistance 	2951.5540194854
scalar RSUExampleScenario.node[4].veinsmobility 	totalCO2Emission 	702.58912392784
scalar RSUExampleScenario.node[40].veinsmobility 	startTime 	96.5
scalar RSUExampleScenario.node[40].veinsmobility 	totalTime 	253.5
scalar RSUExampleScenario.node[40].veinsmobility 	stopTime 	350
scalar RSUExampleScenario.node[40].veinsmobility 	minSpeed 	0
scalar RSUExampleScenario.node[40].veinsmobility 	maxSpeed 	13.999902616849
scalar RSUExampleScenario.node[40].veinsmobility 	totalDistance 	1764.3244240025
scalar RSUExampleScenario.node[40].veinsmobility 	totalCO2Emission 	489.21427732678
scalar RSUExampleScenario.node[41].veinsmobility 	startTime 	98.9
scalar RSUExampleScenario.node[41].veinsmobility 	totalTime 	251.1
scalar RSUExampleScenario.node[41].veinsmobility 	stopTime 	350
scalar RSUExampleScenario.node[41].veinsmobility 	minSpeed 	0
scalar RSUExampleScenario.node[41].veinsmobility 	maxSpeed 	13.999795102216
scalar RSUExampleScenario.node[41].veinsmobility 	totalDistance 	1732.0091949854
scalar RSUExampleScenario.node[41].veinsmobility 	totalCO2Emission 	484.23033410616
scalar RSUExampleScenario.node[42].veinsmobility 	startTime 	101.3
scalar RSUExampleScenario.node[42].veinsmobility 	totalTime 	248.7
scalar RSUExampleScenario.node[42].veinsmobility 	stopTime 	350
scalar RSUExampleScenario.node[42].veinsmobility 	minSpeed 	0
scalar RSUExampleScenario.node[42].veinsmobility 	maxSpeed 	13.999938392758
scalar RSUExampleScenario.node[42].veinsmobility 	totalDistance 	1696.9286511437
scalar RSUExampleScenario.node[42].veinsmobility 	totalCO2Emission 	477.86571302547
scalar RSUExampleScenario.node[43].veinsmobility 	startTime 	103.7
scalar RSUExampleScenario.node[43].veinsmobility 	totalTime 	246.3
scalar RSUExampleScenario.node[43].veinsmobility 	stopTime 	350
scalar RSUExampleScenario.node[43].veinsmobility 	minSpeed 	0
scalar RSUExampleScenario.node[43].veinsmobility 	maxSpeed 	13.999969655226
scalar RSUExampleScenario.node[43].veinsmobility 	totalDistance 	1661.9173949754
scalar RSUExampleScenario.node[43].veinsmobility 	totalCO2Emission 	472.41254134932
scalar RSUExampleScenario.node[44].veinsmobility 	startTime 	106.1
scalar RSUExampleScenario.node[44].veinsmobility 	totalTime 	243.9
scalar RSUExampleScenario.node[44].veinsmobility 	stopTime 	350
scalar RSUExampleScenario.node[44].veinsmobility 	minSpeed 	0
scalar RSUExampleScenario.node[44].veinsmobility 	maxSpeed 	13.999622202958
scalar RSUExampleScenario.node[44].veinsmobility 	totalDistance 	1628.5113958045
scalar RSUExampleScenario.node[44].veinsmobility 	totalCO2Emission 	466.48451586985
scalar RSUExampleScenario.node[45].veinsmobility 	startTime 	108.5
scalar RSUExampleScenario.node[45].veinsmobility 	totalTime 	241.5
scalar RSUExampleScenario.node[45].veinsmobility 	stopTime 	350
scalar RSUExampleScenario.node[45].veinsmobility 	minSpeed 	0
scalar RSUExampleScenario.node[45].veinsmobility 	maxSpeed 	13.999995306465
scalar RSUExampleScenario.node[45].veinsmobility 	totalDistance 	1594.6293982411
scalar RSUExampleScenario.node[45].veinsmobility 	totalCO2Emission 	464.26154608642
scalar RSUExampleScenario.node[46].veinsmobility 	startTime 	110.9
scalar RSUExampleScenario.node[46].veinsmobility 	totalTime 	239.1
scalar RSUExampleScenario.node[46].veinsmobility 	stopTime 	350
scalar RSUExampleScenario.node[46].veinsmobility 	minSpeed 	0
scalar RSUExampleScenario.node[46].veinsmobility 	maxSpeed 	13.99984859322
scalar RSUExampleScenario.node[46].veinsmobility 	totalDistance 	1561.4761617748
scalar RSUExampleScenario.node[46].veinsmobility 	totalCO2Emission 	457.39240876878
scalar RSUExampleScenario.node[47].veinsmobility 	startTime 	113.3
scalar RSUExampleScenario.node[47].veinsmobility 	totalTime 	236.7
scalar RSUExampleScenario.node[47].veinsmobility 	stopTime 	350
scalar RSUExampleScenario.node[47].veinsmobility 	minSpeed 	0
scalar RSUExampleScenario.node[47].veinsmobility 	maxSpeed 	13.999998033398
scalar RSUExampleScenario.node[47].veinsmobility 	totalDistance 	1528.4863484994
scalar RSUExampleScenario.node[47].veinsmobility 	totalCO2Emission 	450.03276136449
scalar RSUExampleScenario.node[48].veinsmobility 	startTime 	115.7
scalar RSUExampleScenario.node[48].veinsmobility 	totalTime 	234.3
scalar RSUExampleScenario.node[48].veinsmobility 	stopTime 	350
scalar RSUExampleScenario.node[48].veinsmobility 	minSpeed 	0
scalar RSUExampleScenario.node[48].veinsmobility 	maxSpeed 	13.999894806771
scalar RSUExampleScenario.node[48].veinsmobility 	totalDistance 	1494.5570527783
scalar RSUExampleScenario.node[48].veinsmobility 	totalCO2Emission 	445.67271468755
scalar RSUExampleScenario.node[49].veinsmobility 	startTime 	118.1
scalar RSUExampleScenario.node[49].veinsmobility 	totalTime 	231.9
scalar RSUExampleScenario.node[49].veinsmobility 	stopTime 	350
scalar RSUExampleScenario.node[49].veinsmobility 	minSpeed 	0
scalar RSUExampleScenario.node[49].veinsmobility 	maxSpeed 	13.999969732652
scalar RSUExampleScenario.node[49].veinsmobility 	totalDistance 	1461.62419179
scalar RSUExampleScenario.node[49].veinsmobility 	totalCO2Emission 	439.40790622524
scalar RSUExampleScenario.node[5].veinsmobility 	startTime 	12.1
scalar RSUExampleScenario.node[5].veinsmobility 	totalTime 	337.9
scalar RSUExampleScenario.node[5].veinsmobility 	stopTime 	350
scalar RSUExampleScenario.node[5].veinsmobility 	minSpeed 	0
scalar RSUExampleScenario.node[5].veinsmobility 	maxSpeed 	13.999957378714
scalar RSUExampleScenario.node[5].veinsmobility 	totalDistance 	2914.7213085316
scalar RSUExampleScenario.node[5].veinsmobility 	totalCO2Emission 	685.4633337702
scalar RSUExampleScenario.node[50].veinsmobility 	startTime 	120.6
scalar RSUExampleScenario.node[50].veinsmobility 	totalTime 	229.4
scalar RSUExampleScenario.node[50].veinsmobility 	stopTime 	350
scalar RSUExampleScenario.node[50].veinsmobility 	minSpeed 	0
scalar RSUExampleScenario.node[50].veinsmobility 	maxSpeed 	13.999754252364
scalar RSUExampleScenario.node[50].veinsmobility 	totalDistance 	1427.9163635963
scalar RSUExampleScenario.node[50].veinsmobility 	totalCO2Emission 	434.24868569494
scalar RSUExampleScenario.node[51].veinsmobility 	startTime 	123
scalar RSUExampleScenario.node[51].veinsmobility 	totalTime 	227
scalar RSUExampleScenario.node[51].veinsmobility 	stopTime 	350
scalar RSUExampleScenario.node[51].veinsmobility 	minSpeed 	0
scalar RSUExampleScenario.node[51].veinsmobility 	maxSpeed 	13.999814861731
scalar RSUExampleScenario.node[51].veinsmobility 	totalDistance 	1394.1159486965
scalar RSUExampleScenario.node[51].veinsmobility 	totalCO2Emission 	428.03581656468
scalar RSUExampleScenario.node[52].veinsmobility 	startTime 	125.4
scalar RSUExampleScenario.node[52].veinsmobility 	totalTime 	224.6
scalar RSUExampleScenario.node[52].veinsmobility 	stopTime 	350
scalar RSUExampleScenario.node[52].veinsmobility 	minSpeed 	0
scalar RSUExampleScenario.node[52].veinsmobility 	maxSpeed 	13.999679408963
scalar RSUExampleScenario.node[52].veinsmobility 	totalDistance 	1360.7666429397
scalar RSUExampleScenario.node[52].veinsmobility 	totalCO2Emission 	420.76373964348
scalar RSUExampleScenario.node[53].veinsmobility 	startTime 	127.8
scalar RSUExampleScenario.node[53].veinsmobility 	totalTime 	222.2
scalar RSUExampleScenario.node[53].veinsmobility 	stopTime 	350
scalar RSUExampleScenario.node[53].veinsmobility 	minSpeed 	0
scalar RSUExampleScenario.node[53].veinsmobility 	maxSpeed 	13.999797107016
scalar RSUExampleScenario.node[53].veinsmobility 	totalDistance 	1328.5924843474
scalar RSUExampleScenario.node[53].veinsmobility 	totalCO2Emission 	418.14810520147
scalar RSUExampleScenario.node[54].veinsmobility 	startTime 	130.2
scalar RSUExampleScenario.node[54].veinsmobility 	totalTime 	219.8
scalar RSUExampleScenario.node[54].veinsmobility 	stopTime 	350
scalar RSUExampleScenario.node[54].veinsmobility 	minSpeed 	0
scalar RSUExampleScenario.node[54].veinsmobility 	maxSpeed 	13.999669721785
scalar RSUExampleScenario.node[54].veinsmobility 	totalDistance 	1293.6992453349
scalar RSUExampleScenario.node[54].veinsmobility 	totalCO2Emission 	408.76074158502
scalar RSUExampleScenario.node[55].veinsmobility 	startTime 	132.6
scalar RSUExampleScenario.node[55].veinsmobility 	totalTime 	217.4
scalar RSUExampleScenario.node[55].veinsmobility 	stopTime 	350
scalar RSUExampleScenario.node[55].veinsmobility 	minSpeed 	0
scalar RSUExampleScenario.node[55].veinsmobility 	maxSpeed 	13.999672334064
scalar RSUExampleScenario.node[55].veinsmobility 	totalDistance 	1260.783444576
scalar RSUExampleScenario.node[55].veinsmobility 	totalCO2Emission 	404.72479986335
scalar RSUExampleScenario.node[56].veinsmobility 	startTime 	135
scalar RSUExampleScenario.node[56].veinsmobility 	totalTime 	215
scalar RSUExampleScenario.node[56].veinsmobility 	stopTime 	350
scalar RSUExampleScenario.node[56].veinsmobility 	minSpeed 	0
scalar RSUExampleScenario.node[56].veinsmobility 	maxSpeed 	13.99999162609
scalar RSUExampleScenario.node[56].veinsmobility 	totalDistance 	1227.9642518514
scalar RSUExampleScenario.node[56].veinsmobility 	totalCO2Emission 	398.29031285959
scalar RSUExampleScenario.node[57].veinsmobility 	startTime 	137.4
scalar RSUExampleScenario.node[57].veinsmobility 	totalTime 	212.6
scalar RSUExampleScenario.node[57].veinsmobility 	stopTime 	350
scalar RSUExampleScenario.node[57].veinsmobility 	minSpeed 	0
scalar RSUExampleScenario.node[57].veinsmobility 	maxSpeed 	13.999879874606
scalar RSUExampleScenario.node[57].veinsmobility 	totalDistance 	1192.1108160145
scalar RSUExampleScenario.node[57].veinsmobility 	totalCO2Emission 	394.78863343128
scalar RSUExampleScenario.node[58].veinsmobility 	startTime 	139.8
scalar RSUExampleScenario.node[58].veinsmobility 	totalTime 	210.2
scalar RSUExampleScenario.node[58].veinsmobility 	stopTime 	350
scalar RSUExampleScenario.node[58].veinsmobility 	minSpeed 	0
scalar RSUExampleScenario.node[58].veinsmobility 	maxSpeed 	13.999797222004
scalar RSUExampleScenario.node[58].veinsmobility 	totalDistance 	1159.6945589432
scalar RSUExampleScenario.node[58].veinsmobility 	totalCO2Emission 	387.58786611676
scalar RSUExampleScenario.node[59].veinsmobility 	startTime 	142.2
scalar RSUExampleScenario.node[59].veinsmobility 	totalTime 	207.8
scalar RSUExampleScenario.node[59].veinsmobility 	stopTime 	350
scalar RSUExampleScenario.node[59].veinsmobility 	minSpeed 	0
scalar RSUExampleScenario.node[59].veinsmobility 	maxSpeed 	13.999859687707
scalar RSUExampleScenario.node[59].veinsmobility 	totalDistance 	1125.4993718588
scalar RSUExampleScenario.node[59].veinsmobility 	totalCO2Emission 	381.19138658014
scalar RSUExampleScenario.node[6].veinsmobility 	startTime 	14.5
scalar RSUExampleScenario.node[6].veinsmobility 	totalTime 	335.5
scalar RSUExampleScenario.node[6].veinsmobility 	stopTime 	350
scalar RSUExampleScenario.node[6].veinsmobility 	minSpeed 	0
scalar RSUExampleScenario.node[6].veinsmobility 	maxSpeed 	13.999892963299
scalar RSUExampleScenario.node[6].veinsmobility 	totalDistance 	2906.3682433314
scalar RSUExampleScenario.node[6].veinsmobility 	totalCO2Emission 	680.99282598666
scalar RSUExampleScenario.node[60].veinsmobility 	startTime 	144.7
scalar RSUExampleScenario.node[60].veinsmobility 	totalTime 	205.3
scalar RSUExampleScenario.node[60].veinsmobility 	stopTime 	350
scalar RSUExampleScenario.node[60].veinsmobility 	minSpeed 	0
scalar RSUExampleScenario.node[60].veinsmobility 	maxSpeed 	13.999876345661
scalar RSUExampleScenario.node[60].veinsmobility 	totalDistance 	1092.952276606
scalar RSUExampleScenario.node[60].veinsmobility 	totalCO2Emission 	377.425627083
scalar RSUExampleScenario.node[61].veinsmobility 	startTime 	147.1
scalar RSUExampleScenario.node[61].veinsmobility 	totalTime 	202.9
scalar RSUExampleScenario.node[61].veinsmobility 	stopTime 	350
scalar RSUExampleScenario.node[61].veinsmobility 	minSpeed 	0
scalar RSUExampleScenario.node[61].veinsmobility 	maxSpeed 	13.999482625935
scalar RSUExampleScenario.node[61].veinsmobility 	totalDistance 	1056.6239408836
scalar RSUExampleScenario.node[61].veinsmobility 	totalCO2Emission 	369.25505064786
scalar RSUExampleScenario.node[62].veinsmobility 	startTime 	149.5
scalar RSUExampleScenario.node[62].veinsmobility 	totalTime 	200.5
scalar RSUExampleScenario.node[62].veinsmobility 	stopTime 	350
scalar RSUExampleScenario.node[62].veinsmobility 	minSpeed 	0
scalar RSUExampleScenario.node[62].veinsmobility 	maxSpeed 	13.99989173681
scalar RSUExampleScenario.node[62].veinsmobility 	totalDistance 	1023.5865712281
scalar RSUExampleScenario.node[62].veinsmobility 	totalCO2Emission 	363.90540418123
scalar RSUExampleScenario.node[63].veinsmobility 	startTime 	151.9
scalar RSUExampleScenario.node[63].veinsmobility 	totalTime 	198.1
scalar RSUExampleScenario.node[63].veinsmobility 	stopTime 	350
scalar RSUExampleScenario.node[63].veinsmobility 	minSpeed 	0
scalar RSUExampleScenario.node[63].veinsmobility 	maxSpeed 	13.999592218797
scalar RSUExampleScenario.node[63].veinsmobility 	totalDistance 	986.81226171379
scalar RSUExampleScenario.node[63].veinsmobility 	totalCO2Emission 	353.21323569115
scalar RSUExampleScenario.node[64].veinsmobility 	startTime 	154.3
scalar RSUExampleScenario.node[64].veinsmobility 	totalTime 	195.7
scalar RSUExampleScenario.node[64].veinsmobility 	stopTime 	350
scalar RSUExampleScenario.node[64].veinsmobility 	minSpeed 	0
scalar RSUExampleScenario.node[64].veinsmobility 	maxSpeed 	13.999934453077
scalar RSUExampleScenario.node[64].veinsmobility 	totalDistance 	953.85581723369
scalar RSUExampleScenario.node[64].veinsmobility 	totalCO2Emission 	338.93604828444
scalar RSUExampleScenario.node[65].veinsmobility 	startTime 	156.7
scalar RSUExampleScenario.node[65].veinsmobility 	totalTime 	193.3
scalar RSUExampleScenario.node[65].veinsmobility 	stopTime 	350
scalar RSUExampleScenario.node[65].veinsmobility 	minSpeed 	0
scalar RSUExampleScenario.node[65].veinsmobility 	maxSpeed 	13.999519160087
scalar RSUExampleScenario.node[65].veinsmobility 	totalDistance 	940.3019564088
scalar RSUExampleScenario.node[65].veinsmobility 	totalCO2Emission 	330.57189072565
scalar RSUExampleScenario.node[66].veinsmobility 	startTime 	159.1
scalar RSUExampleScenario.node[66].veinsmobility 	totalTime 	190.9
scalar RSUExampleScenario.node[66].veinsmobility 	stopTime 	350
scalar RSUExampleScenario.node[66].veinsmobility 	minSpeed 	0
scalar RSUExampleScenario.node[66].veinsmobility 	maxSpeed 	13.999727207103
scalar RSUExampleScenario.node[66].veinsmobility 	totalDistance 	928.06589941295
scalar RSUExampleScenario.node[66].veinsmobility 	totalCO2Emission 	326.33589124379
scalar RSUExampleScenario.node[67].veinsmobility 	startTime 	161.5
scalar RSUExampleScenario.node[67].veinsmobility 	totalTime 	188.5
scalar RSUExampleScenario.node[67].veinsmobility 	stopTime 	350
scalar RSUExampleScenario.node[67].veinsmobility 	minSpeed 	0
scalar RSUExampleScenario.node[67].veinsmobility 	maxSpeed 	13.998927282258
scalar RSUExampleScenario.node[67].veinsmobility 	totalDistance 	912.99651889517
scalar RSUExampleScenario.node[67].veinsmobility 	totalCO2Emission 	324.52979662819
scalar RSUExampleScenario.node[68].veinsmobility 	startTime 	163.9
scalar RSUExampleScenario.node[68].veinsmobility 	totalTime 	186.1
scalar RSUExampleScenario.node[68].veinsmobility 	stopTime 	350
scalar RSUExampleScenario.node[68].veinsmobility 	minSpeed 	0
scalar RSUExampleScenario.node[68].veinsmobility 	maxSpeed 	13.999340049324
scalar RSUExampleScenario.node[68].veinsmobility 	totalDistance 	893.57833156658
scalar RSUExampleScenario.node[68].veinsmobility 	totalCO2Emission 	322.48601351142
scalar RSUExampleScenario.node[69].veinsmobility 	startTime 	166.3
scalar RSUExampleScenario.node[69].veinsmobility 	totalTime 	183.7
scalar RSUExampleScenario.node[69].veinsmobility 	stopTime 	350
scalar RSUExampleScenario.node[69].veinsmobility 	minSpeed 	0
scalar RSUExampleScenario.node[69].veinsmobility 	maxSpeed 	13.999963997898
scalar RSUExampleScenario.node[69].veinsmobility 	totalDistance 	860.52894788232
scalar RSUExampleScenario.node[69].veinsmobility 	totalCO2Emission 	315.42636296244
scalar RSUExampleScenario.node[7].veinsmobility 	startTime 	16.9
scalar RSUExampleScenario.node[7].veinsmobility 	totalTime 	333.1
scalar RSUExampleScenario.node[7].veinsmobility 	stopTime 	350
scalar RSUExampleScenario.node[7].veinsmobility 	minSpeed 	0
scalar RSUExampleScenario.node[7].veinsmobility 	maxSpeed 	13.999826380818
scalar RSUExampleScenario.node[7].veinsmobility 	totalDistance 	2886.0414634976
scalar RSUExampleScenario.node[7].veinsmobility 	totalCO2Emission 	678.7105577194
scalar RSUExampleScenario.node[70].veinsmobility 	startTime 	168.8
scalar RSUExampleScenario.node[70].veinsmobility 	totalTime 	181.2
scalar RSUExampleScenario.node[70].veinsmobility 	stopTime 	350
scalar RSUExampleScenario.node[70].veinsmobility 	minSpeed 	0
scalar RSUExampleScenario.node[70].veinsmobility 	maxSpeed 	13.999856804016
scalar RSUExampleScenario.node[70].veinsmobility 	totalDistance 	824.64929611219
scalar RSUExampleScenario.node[70].veinsmobility 	totalCO2Emission 	309.50120043115
scalar RSUExampleScenario.node[71].veinsmobility 	startTime 	171.2
scalar RSUExampleScenario.node[71].veinsmobility 	totalTime 	178.8
scalar RSUExampleScenario.node[71].veinsmobility 	stopTime 	350
scalar RSUExampleScenario.node[71].veinsmobility 	minSpeed 	0
scalar RSUExampleScenario.node[71].veinsmobility 	maxSpeed 	13.999789230681
scalar RSUExampleScenario.node[71].veinsmobility 	totalDistance 	791.22691700655
scalar RSUExampleScenario.node[71].veinsmobility 	totalCO2Emission 	304.59077146434
scalar RSUExampleScenario.node[72].veinsmobility 	startTime 	173.6
scalar RSUExampleScenario.node[72].veinsmobility 	totalTime 	176.4
scalar RSUExampleScenario.node[72].veinsmobility 	stopTime 	350
scalar RSUExampleScenario.node[72].veinsmobility 	minSpeed 	0
scalar RSUExampleScenario.node[72].veinsmobility 	maxSpeed 	13.999873852367
scalar RSUExampleScenario.node[72].veinsmobility 	totalDistance 	758.72067196793
scalar RSUExampleScenario.node[72].veinsmobility 	totalCO2Emission 	299.59931882544
scalar RSUExampleScenario.node[73].veinsmobility 	startTime 	176
scalar RSUExampleScenario.node[73].veinsmobility 	totalTime 	174
scalar RSUExampleScenario.node[73].veinsmobility 	stopTime 	350
scalar RSUExampleScenario.node[73].veinsmobility 	minSpeed 	0
scalar RSUExampleScenario.node[73].veinsmobility 	maxSpeed 	13.999706832543
scalar RSUExampleScenario.node[73].veinsmobility 	totalDistance 	725.38949650478
scalar RSUExampleScenario.node[73].veinsmobility 	totalCO2Emission 	293.39406061005
scalar RSUExampleScenario.node[74].veinsmobility 	startTime 	178.4
scalar RSUExampleScenario.node[74].veinsmobility 	totalTime 	171.6
scalar RSUExampleScenario.node[74].veinsmobility 	stopTime 	350
scalar RSUExampleScenario.node[74].veinsmobility 	minSpeed 	0
scalar RSUExampleScenario.node[74].veinsmobility 	maxSpeed 	13.999401634804
scalar RSUExampleScenario.node[74].veinsmobility 	totalDistance 	691.12113168009
scalar RSUExampleScenario.node[74].veinsmobility 	totalCO2Emission 	288.45866391184
scalar RSUExampleScenario.node[75].veinsmobility 	startTime 	180.8
scalar RSUExampleScenario.node[75].veinsmobility 	totalTime 	169.2
scalar RSUExampleScenario.node[75].veinsmobility 	stopTime 	350
scalar RSUExampleScenario.node[75].veinsmobility 	minSpeed 	0
scalar RSUExampleScenario.node[75].veinsmobility 	maxSpeed 	13.999308615902
scalar RSUExampleScenario.node[75].veinsmobility 	totalDistance 	657.59297288613
scalar RSUExampleScenario.node[75].veinsmobility 	totalCO2Emission 	282.23139398624
scalar RSUExampleScenario.node[76].veinsmobility 	startTime 	183.2
scalar RSUExampleScenario.node[76].veinsmobility 	totalTime 	166.8
scalar RSUExampleScenario.node[76].veinsmobility 	stopTime 	350
scalar RSUExampleScenario.node[76].veinsmobility 	minSpeed 	0
scalar RSUExampleScenario.node[76].veinsmobility 	maxSpeed 	13.999608156041
scalar RSUExampleScenario.node[76].veinsmobility 	totalDistance 	622.97344732514
scalar RSUExampleScenario.node[76].veinsmobility 	totalCO2Emission 	275.89837324519
scalar RSUExampleScenario.node[77].veinsmobility 	startTime 	185.6
scalar RSUExampleScenario.node[77].veinsmobility 	totalTime 	164.4
scalar RSUExampleScenario.node[77].veinsmobility 	stopTime 	350
scalar RSUExampleScenario.node[77].veinsmobility 	minSpeed 	0
scalar RSUExampleScenario.node[77].veinsmobility 	maxSpeed 	13.999994197022
scalar RSUExampleScenario.node[77].veinsmobility 	totalDistance 	588.82696805747
scalar RSUExampleScenario.node[77].veinsmobility 	totalCO2Emission 	271.60523045516
scalar RSUExampleScenario.node[78].veinsmobility 	startTime 	188
scalar RSUExampleScenario.node[78].veinsmobility 	totalTime 	162
scalar RSUExampleScenario.node[78].veinsmobility 	stopTime 	350
scalar RSUExampleScenario.node[78].veinsmobility 	minSpeed 	0
scalar RSUExampleScenario.node[78].veinsmobility 	maxSpeed 	13.999934200279
scalar RSUExampleScenario.node[78].veinsmobility 	totalDistance 	556.21917941202
scalar RSUExampleScenario.node[78].veinsmobility 	totalCO2Emission 	264.8785147104
scalar RSUExampleScenario.node[79].veinsmobility 	startTime 	190.4
scalar RSUExampleScenario.node[79].veinsmobility 	totalTime 	159.6
scalar RSUExampleScenario.node[79].veinsmobility 	stopTime 	350
scalar RSUExampleScenario.node[79].veinsmobility 	minSpeed 	0
scalar RSUExampleScenario.node[79].veinsmobility 	maxSpeed 	13.999554022539
scalar RSUExampleScenario.node[79].veinsmobility 	totalDistance 	523.34428126824
scalar RSUExampleScenario.node[79].veinsmobility 	totalCO2Emission 	258.51281747023
scalar RSUExampleScenario.node[8].veinsmobility 	startTime 	19.3
scalar RSUExampleScenario.node[8].veinsmobility 	totalTime 	330.7
scalar RSUExampleScenario.node[8].veinsmobility 	stopTime 	350
scalar RSUExampleScenario.node[8].veinsmobility 	minSpeed 	0
scalar RSUExampleScenario.node[8].veinsmobility 	maxSpeed 	13.999997968443
scalar RSUExampleScenario.node[8].veinsmobility 	totalDistance 	2866.1668205988
scalar RSUExampleScenario.node[8].veinsmobility 	totalCO2Emission 	674.41505643675
scalar RSUExampleScenario.node[80].veinsmobility 	startTime 	192.9
scalar RSUExampleScenario.node[80].veinsmobility 	totalTime 	157.1
scalar RSUExampleScenario.node[80].veinsmobility 	stopTime 	350
scalar RSUExampleScenario.node[80].veinsmobility 	minSpeed 	0
scalar RSUExampleScenario.node[80].veinsmobility 	maxSpeed 	13.99741689946
scalar RSUExampleScenario.node[80].veinsmobility 	totalDistance 	489.78455712453
scalar RSUExampleScenario.node[80].veinsmobility 	totalCO2Emission 	253.62502504144
scalar RSUExampleScenario.node[81].veinsmobility 	startTime 	195.3
scalar RSUExampleScenario.node[81].veinsmobility 	totalTime 	154.7
scalar RSUExampleScenario.node[81].veinsmobility 	stopTime 	350
scalar RSUExampleScenario.node[81].veinsmobility 	minSpeed 	0
scalar RSUExampleScenario.node[81].veinsmobility 	maxSpeed 	13.994322569922
scalar RSUExampleScenario.node[81].veinsmobility 	totalDistance 	456.01130664499
scalar RSUExampleScenario.node[81].veinsmobility 	totalCO2Emission 	247.10881549953
scalar RSUExampleScenario.node[82].veinsmobility 	startTime 	197.7
scalar RSUExampleScenario.node[82].veinsmobility 	totalTime 	152.3
scalar RSUExampleScenario.node[82].veinsmobility 	stopTime 	350
scalar RSUExampleScenario.node[82].veinsmobility 	minSpeed 	0
scalar RSUExampleScenario.node[82].veinsmobility 	maxSpeed 	13.998161339127
scalar RSUExampleScenario.node[82].veinsmobility 	totalDistance 	422.44949405003
scalar RSUExampleScenario.node[82].veinsmobility 	totalCO2Emission 	241.16719387066
scalar RSUExampleScenario.node[83].veinsmobility 	startTime 	200.1
scalar RSUExampleScenario.node[83].veinsmobility 	totalTime 	149.9
scalar RSUExampleScenario.node[83].veinsmobility 	stopTime 	350
scalar RSUExampleScenario.node[83].veinsmobility 	minSpeed 	0
scalar RSUExampleScenario.node[83].veinsmobility 	maxSpeed 	13.999700337246
scalar RSUExampleScenario.node[83].veinsmobility 	totalDistance 	389.52871453219
scalar RSUExampleScenario.node[83].veinsmobility 	totalCO2Emission 	235.98857781159
scalar RSUExampleScenario.node[84].veinsmobility 	startTime 	202.5
scalar RSUExampleScenario.node[84].veinsmobility 	totalTime 	147.5
scalar RSUExampleScenario.node[84].veinsmobility 	stopTime 	350
scalar RSUExampleScenario.node[84].veinsmobility 	minSpeed 	0
scalar RSUExampleScenario.node[84].veinsmobility 	maxSpeed 	13.999568671002
scalar RSUExampleScenario.node[84].veinsmobility 	totalDistance 	356.002337234
scalar RSUExampleScenario.node[84].veinsmobility 	totalCO2Emission 	230.14421148866
scalar RSUExampleScenario.node[85].veinsmobility 	startTime 	204.9
scalar RSUExampleScenario.node[85].veinsmobility 	totalTime 	145.1
scalar RSUExampleScenario.node[85].veinsmobility 	stopTime 	350
scalar RSUExampleScenario.node[85].veinsmobility 	minSpeed 	0
scalar RSUExampleScenario.node[85].veinsmobility 	maxSpeed 	13.999415455135
scalar RSUExampleScenario.node[85].veinsmobility 	totalDistance 	322.54161917623
scalar RSUExampleScenario.node[85].veinsmobility 	totalCO2Emission 	224.91351826301
scalar RSUExampleScenario.node[86].veinsmobility 	startTime 	207.3
scalar RSUExampleScenario.node[86].veinsmobility 	totalTime 	142.7
scalar RSUExampleScenario.node[86].veinsmobility 	stopTime 	350
scalar RSUExampleScenario.node[86].veinsmobility 	minSpeed 	0
scalar RSUExampleScenario.node[86].veinsmobility 	maxSpeed 	13.863885365617
scalar RSUExampleScenario.node[86].veinsmobility 	totalDistance 	288.21606258758
scalar RSUExampleScenario.node[86].veinsmobility 	totalCO2Emission 	219.12417134959
scalar RSUExampleScenario.node[87].veinsmobility 	startTime 	209.7
scalar RSUExampleScenario.node[87].veinsmobility 	totalTime 	140.3
scalar RSUExampleScenario.node[87].veinsmobility 	stopTime 	350
scalar RSUExampleScenario.node[87].veinsmobility 	minSpeed 	0
scalar RSUExampleScenario.node[87].veinsmobility 	maxSpeed 	13.757362240488
scalar RSUExampleScenario.node[87].veinsmobility 	totalDistance 	248.5581944799
scalar RSUExampleScenario.node[87].veinsmobility 	totalCO2Emission 	201.13984925232
scalar RSUExampleScenario.node[88].veinsmobility 	startTime 	212.1
scalar RSUExampleScenario.node[88].veinsmobility 	totalTime 	137.9
scalar RSUExampleScenario.node[88].veinsmobility 	stopTime 	350
scalar RSUExampleScenario.node[88].veinsmobility 	minSpeed 	0
scalar RSUExampleScenario.node[88].veinsmobility 	maxSpeed 	13.886757044643
scalar RSUExampleScenario.node[88].veinsmobility 	totalDistance 	226.09617835284
scalar RSUExampleScenario.node[88].veinsmobility 	totalCO2Emission 	189.66129832436
scalar RSUExampleScenario.node[89].veinsmobility 	startTime 	214.5
scalar RSUExampleScenario.node[89].veinsmobility 	totalTime 	135.5
scalar RSUExampleScenario.node[89].veinsmobility 	stopTime 	350
scalar RSUExampleScenario.node[89].veinsmobility 	minSpeed 	0
scalar RSUExampleScenario.node[89].veinsmobility 	maxSpeed 	13.874282005276
scalar RSUExampleScenario.node[89].veinsmobility 	totalDistance 	215.19021477991
scalar RSUExampleScenario.node[89].veinsmobility 	totalCO2Emission 	186.28890041163
scalar RSUExampleScenario.node[9].veinsmobility 	startTime 	21.7
scalar RSUExampleScenario.node[9].veinsmobility 	totalTime 	328.3
scalar RSUExampleScenario.node[9].veinsmobility 	stopTime 	350
scalar RSUExampleScenario.node[9].veinsmobility 	minSpeed 	0
scalar RSUExampleScenario.node[9].veinsmobility 	maxSpeed 	13.999920871833
scalar RSUExampleScenario.node[9].veinsmobility 	totalDistance 	2825.5978534784
scalar RSUExampleScenario.node[9].veinsmobility 	totalCO2Emission 	669.01717461617
scalar RSUExampleScenario.node[90].veinsmobility 	startTime 	217
scalar RSUExampleScenario.node[90].veinsmobility 	totalTime 	133
scalar RSUExampleScenario.node[90].veinsmobility 	stopTime 	350
scalar RSUExampleScenario.node[90].veinsmobility 	minSpeed 	0
scalar RSUExampleScenario.node[90].veinsmobility 	maxSpeed 	13.851273274182
scalar RSUExampleScenario.node[90].veinsmobility 	totalDistance 	202.01602659661
scalar RSUExampleScenario.node[90].veinsmobility 	totalCO2Emission 	183.20906230435
scalar RSUExampleScenario.node[91].veinsmobility 	startTime 	219.4
scalar RSUExampleScenario.node[91].veinsmobility 	totalTime 	130.6
scalar RSUExampleScenario.node[91].veinsmobility 	stopTime 	350
scalar RSUExampleScenario.node[91].veinsmobility 	minSpeed 	0
scalar RSUExampleScenario.node[91].veinsmobility 	maxSpeed 	13.809595567028
scalar RSUExampleScenario.node[91].veinsmobility 	totalDistance 	185.31083014796
scalar RSUExampleScenario.node[91].veinsmobility 	totalCO2Emission 	180.21329090359
scalar RSUExampleScenario.node[92].veinsmobility 	startTime 	221.8
scalar RSUExampleScenario.node[92].veinsmobility 	totalTime 	128.2
scalar RSUExampleScenario.node[92].veinsmobility 	stopTime 	350
scalar RSUExampleScenario.node[92].veinsmobility 	minSpeed 	0
scalar RSUExampleScenario.node[92].veinsmobility 	maxSpeed 	13.833258335462
scalar RSUExampleScenario.node[92].veinsmobility 	totalDistance 	151.03277973553
scalar RSUExampleScenario.node[92].veinsmobility 	totalCO2Emission 	167.31197016877
scalar RSUExampleScenario.node[93].veinsmobility 	startTime 	224.2
scalar RSUExampleScenario.node[93].veinsmobility 	totalTime 	125.8
scalar RSUExampleScenario.node[93].veinsmobility 	stopTime 	350
scalar RSUExampleScenario.node[93].veinsmobility 	minSpeed 	0
scalar RSUExampleScenario.node[93].veinsmobility 	maxSpeed 	13.878670326227
scalar RSUExampleScenario.node[93].veinsmobility 	totalDistance 	123.67672947303
scalar RSUExampleScenario.node[93].veinsmobility 	totalCO2Emission 	154.50061702053
scalar RSUExampleScenario.node[94].veinsmobility 	startTime 	226.6
scalar RSUExampleScenario.node[94].veinsmobility 	totalTime 	123.4
scalar RSUExampleScenario.node[94].veinsmobility 	stopTime 	350
scalar RSUExampleScenario.node[94].veinsmobility 	minSpeed 	0
scalar RSUExampleScenario.node[94].veinsmobility 	maxSpeed 	13.77444698298
scalar RSUExampleScenario.node[94].veinsmobility 	totalDistance 	112.38631414927
scalar RSUExampleScenario.node[94].veinsmobility 	totalCO2Emission 	148.6444212807
scalar RSUExampleScenario.node[95].veinsmobility 	startTime 	229
scalar RSUExampleScenario.node[95].veinsmobility 	totalTime 	121
scalar RSUExampleScenario.node[95].veinsmobility 	stopTime 	350
scalar RSUExampleScenario.node[95].veinsmobility 	minSpeed 	0
scalar RSUExampleScenario.node[95].veinsmobility 	maxSpeed 	13.690601329696
scalar RSUExampleScenario.node[95].veinsmobility 	totalDistance 	99.26790598593
scalar RSUExampleScenario.node[95].veinsmobility 	totalCO2Emission 	144.6719205237
scalar RSUExampleScenario.node[96].veinsmobility 	startTime 	231.4
scalar RSUExampleScenario.node[96].veinsmobility 	totalTime 	118.6
scalar RSUExampleScenario.node[96].veinsmobility 	stopTime 	350
scalar RSUExampleScenario.node[96].veinsmobility 	minSpeed 	0
scalar RSUExampleScenario.node[96].veinsmobility 	maxSpeed 	13.814159538476
scalar RSUExampleScenario.node[96].veinsmobility 	totalDistance 	83.419457417122
scalar RSUExampleScenario.node[96].veinsmobility 	totalCO2Emission 	142.57005000113
scalar RSUExampleScenario.node[97].veinsmobility 	startTime 	233.8
scalar RSUExampleScenario.node[97].veinsmobility 	totalTime 	116.2
scalar RSUExampleScenario.node[97].veinsmobility 	stopTime 	350
scalar RSUExampleScenario.node[97].veinsmobility 	minSpeed 	0
scalar RSUExampleScenario.node[97].veinsmobility 	maxSpeed 	12.347390828441
scalar RSUExampleScenario.node[97].veinsmobility 	totalDistance 	56.381209330035
scalar RSUExampleScenario.node[97].veinsmobility 	totalCO2Emission 	134.68912856916
scalar RSUExampleScenario.node[98].veinsmobility 	startTime 	236.2
scalar RSUExampleScenario.node[98].veinsmobility 	totalTime 	113.8
scalar RSUExampleScenario.node[98].veinsmobility 	stopTime 	350
scalar RSUExampleScenario.node[98].veinsmobility 	minSpeed 	0
scalar RSUExampleScenario.node[98].veinsmobility 	maxSpeed 	7.9116910937779
scalar RSUExampleScenario.node[98].veinsmobility 	totalDistance 	22.537717597644
scalar RSUExampleScenario.node[98].veinsmobility 	totalCO2Emission 	119.68679123846
scalar RSUExampleScenario.node[99].veinsmobility 	startTime 	238.6
scalar RSUExampleScenario.node[99].veinsmobility 	totalTime 	111.4
scalar RSUExampleScenario.node[99].veinsmobility 	stopTime 	350
scalar RSUExampleScenario.node[99].veinsmobility 	minSpeed 	0
scalar RSUExampleScenario.node[99].veinsmobility 	maxSpeed 	2.9396876712172
scalar RSUExampleScenario.node[99].veinsmobility 	totalDistance 	3.1360276618824
scalar RSUExampleScenario.node[99].veinsmobility 	totalCO2Emission 	109.68653216916
