version 2
run statisticRVV-234-20150326-09:52:52-5108
attr c 6
attr configname statisticRVV
attr datetime 20150326-09:52:52
attr experiment statisticRVV
attr inifile omnetpp.ini
attr iterationvars "$sc=\"erlangen-medium.launchd.xml\", $p=1/5, $c=6"
attr iterationvars2 "$sc=\"erlangen-medium.launchd.xml\", $p=1/5, $c=6, $repetition=4"
attr measurement "$sc=\"erlangen-medium.launchd.xml\", $p=1/5, $c=6"
attr network RSUExampleScenario
attr p 1/5
attr processid 5108
attr repetition 4
attr replication #4
attr resultdir results
attr runnumber 234
attr sc "\"erlangen-medium.launchd.xml\""
attr seedset 234

scalar . 	c 	6
scalar RSUExampleScenario.node[0].veinsmobility 	startTime 	0.1
scalar RSUExampleScenario.node[0].veinsmobility 	totalTime 	264.4
scalar RSUExampleScenario.node[0].veinsmobility 	stopTime 	264.6
scalar RSUExampleScenario.node[0].veinsmobility 	minSpeed 	0.25959742455743
scalar RSUExampleScenario.node[0].veinsmobility 	maxSpeed 	13.999969786226
scalar RSUExampleScenario.node[0].veinsmobility 	totalDistance 	3409.5346076876
scalar RSUExampleScenario.node[0].veinsmobility 	totalCO2Emission 	692.87413391335
scalar RSUExampleScenario.node[1].veinsmobility 	startTime 	3.1
scalar RSUExampleScenario.node[1].veinsmobility 	totalTime 	265.5
scalar RSUExampleScenario.node[1].veinsmobility 	stopTime 	268.7
scalar RSUExampleScenario.node[1].veinsmobility 	minSpeed 	0.25251407959056
scalar RSUExampleScenario.node[1].veinsmobility 	maxSpeed 	13.99988506496
scalar RSUExampleScenario.node[1].veinsmobility 	totalDistance 	3409.3385115243
scalar RSUExampleScenario.node[1].veinsmobility 	totalCO2Emission 	691.53226901693
scalar RSUExampleScenario.node[2].veinsmobility 	startTime 	6.1
scalar RSUExampleScenario.node[2].veinsmobility 	totalTime 	266.2
scalar RSUExampleScenario.node[2].veinsmobility 	stopTime 	272.4
scalar RSUExampleScenario.node[2].veinsmobility 	minSpeed 	0.25698443854577
scalar RSUExampleScenario.node[2].veinsmobility 	maxSpeed 	13.999891989881
scalar RSUExampleScenario.node[2].veinsmobility 	totalDistance 	3409.4165079153
scalar RSUExampleScenario.node[2].veinsmobility 	totalCO2Emission 	691.10853607523
scalar RSUExampleScenario.node[3].veinsmobility 	startTime 	9.1
scalar RSUExampleScenario.node[3].veinsmobility 	totalTime 	266.4
scalar RSUExampleScenario.node[3].veinsmobility 	stopTime 	275.6
scalar RSUExampleScenario.node[3].veinsmobility 	minSpeed 	0.25770829272619
scalar RSUExampleScenario.node[3].veinsmobility 	maxSpeed 	13.999961766421
scalar RSUExampleScenario.node[3].veinsmobility 	totalDistance 	3413.2011047692
scalar RSUExampleScenario.node[3].veinsmobility 	totalCO2Emission 	695.36344711396
scalar RSUExampleScenario.node[4].veinsmobility 	startTime 	12.1
scalar RSUExampleScenario.node[4].veinsmobility 	totalTime 	266.8
scalar RSUExampleScenario.node[4].veinsmobility 	stopTime 	279
scalar RSUExampleScenario.node[4].veinsmobility 	minSpeed 	0.25648686147318
scalar RSUExampleScenario.node[4].veinsmobility 	maxSpeed 	13.999650189825
scalar RSUExampleScenario.node[4].veinsmobility 	totalDistance 	3409.610041745
scalar RSUExampleScenario.node[4].veinsmobility 	totalCO2Emission 	692.2885774894
scalar RSUExampleScenario.node[5].veinsmobility 	startTime 	15.1
scalar RSUExampleScenario.node[5].veinsmobility 	totalTime 	266.9
scalar RSUExampleScenario.node[5].veinsmobility 	stopTime 	282.1
scalar RSUExampleScenario.node[5].veinsmobility 	minSpeed 	0.25549682715745
scalar RSUExampleScenario.node[5].veinsmobility 	maxSpeed 	13.999960711037
scalar RSUExampleScenario.node[5].veinsmobility 	totalDistance 	3413.4910945052
scalar RSUExampleScenario.node[5].veinsmobility 	totalCO2Emission 	693.05918361676
scalar RSUExampleScenario.node[6].veinsmobility 	startTime 	18.1
scalar RSUExampleScenario.node[6].veinsmobility 	totalTime 	267.1
scalar RSUExampleScenario.node[6].veinsmobility 	stopTime 	285.3
scalar RSUExampleScenario.node[6].veinsmobility 	minSpeed 	0.25860838530771
scalar RSUExampleScenario.node[6].veinsmobility 	maxSpeed 	13.999971363945
scalar RSUExampleScenario.node[6].veinsmobility 	totalDistance 	3409.8049146253
scalar RSUExampleScenario.node[6].veinsmobility 	totalCO2Emission 	694.17363738329
scalar RSUExampleScenario.node[7].veinsmobility 	startTime 	21.1
scalar RSUExampleScenario.node[7].veinsmobility 	totalTime 	267.1
scalar RSUExampleScenario.node[7].veinsmobility 	stopTime 	288.3
scalar RSUExampleScenario.node[7].veinsmobility 	minSpeed 	0.24712235610536
scalar RSUExampleScenario.node[7].veinsmobility 	maxSpeed 	13.999970410594
scalar RSUExampleScenario.node[7].veinsmobility 	totalDistance 	3413.3762298541
scalar RSUExampleScenario.node[7].veinsmobility 	totalCO2Emission 	690.52722275829
scalar RSUExampleScenario.node[8].veinsmobility 	startTime 	24.1
scalar RSUExampleScenario.node[8].veinsmobility 	totalTime 	267.1
scalar RSUExampleScenario.node[8].veinsmobility 	stopTime 	291.3
scalar RSUExampleScenario.node[8].veinsmobility 	minSpeed 	0.25045159262582
scalar RSUExampleScenario.node[8].veinsmobility 	maxSpeed 	13.999871701554
scalar RSUExampleScenario.node[8].veinsmobility 	totalDistance 	3409.6796936337
scalar RSUExampleScenario.node[8].veinsmobility 	totalCO2Emission 	691.62157804964
scalar RSUExampleScenario.node[9].veinsmobility 	startTime 	27.1
scalar RSUExampleScenario.node[9].veinsmobility 	totalTime 	267.1
scalar RSUExampleScenario.node[9].veinsmobility 	stopTime 	294.3
scalar RSUExampleScenario.node[9].veinsmobility 	minSpeed 	0.25751907989942
scalar RSUExampleScenario.node[9].veinsmobility 	maxSpeed 	13.99991206391
scalar RSUExampleScenario.node[9].veinsmobility 	totalDistance 	3413.8318929996
scalar RSUExampleScenario.node[9].veinsmobility 	totalCO2Emission 	698.85773202915
scalar RSUExampleScenario.node[10].veinsmobility 	startTime 	30.1
scalar RSUExampleScenario.node[10].veinsmobility 	totalTime 	267.2
scalar RSUExampleScenario.node[10].veinsmobility 	stopTime 	297.4
scalar RSUExampleScenario.node[10].veinsmobility 	minSpeed 	0.24741701268964
scalar RSUExampleScenario.node[10].veinsmobility 	maxSpeed 	13.999789788914
scalar RSUExampleScenario.node[10].veinsmobility 	totalDistance 	3409.5990754452
scalar RSUExampleScenario.node[10].veinsmobility 	totalCO2Emission 	687.57829733445
scalar RSUExampleScenario.node[11].veinsmobility 	startTime 	33.1
scalar RSUExampleScenario.node[11].veinsmobility 	totalTime 	267.3
scalar RSUExampleScenario.node[11].veinsmobility 	stopTime 	300.5
scalar RSUExampleScenario.node[11].veinsmobility 	minSpeed 	0.25003275421076
scalar RSUExampleScenario.node[11].veinsmobility 	maxSpeed 	13.999971432653
scalar RSUExampleScenario.node[11].veinsmobility 	totalDistance 	3410.0682335357
scalar RSUExampleScenario.node[11].veinsmobility 	totalCO2Emission 	688.36650272623
scalar RSUExampleScenario.node[12].veinsmobility 	startTime 	36.1
scalar RSUExampleScenario.node[12].veinsmobility 	totalTime 	267.4
scalar RSUExampleScenario.node[12].veinsmobility 	stopTime 	303.6
scalar RSUExampleScenario.node[12].veinsmobility 	minSpeed 	0.25317723392369
scalar RSUExampleScenario.node[12].veinsmobility 	maxSpeed 	13.999977794923
scalar RSUExampleScenario.node[12].veinsmobility 	totalDistance 	3414.1773605917
scalar RSUExampleScenario.node[12].veinsmobility 	totalCO2Emission 	689.87626953643
scalar RSUExampleScenario.node[13].veinsmobility 	startTime 	39.1
scalar RSUExampleScenario.node[13].veinsmobility 	totalTime 	267.5
scalar RSUExampleScenario.node[13].veinsmobility 	stopTime 	306.7
scalar RSUExampleScenario.node[13].veinsmobility 	minSpeed 	0.25424053457868
scalar RSUExampleScenario.node[13].veinsmobility 	maxSpeed 	13.999985374298
scalar RSUExampleScenario.node[13].veinsmobility 	totalDistance 	3409.6325007336
scalar RSUExampleScenario.node[13].veinsmobility 	totalCO2Emission 	691.8399697911
scalar RSUExampleScenario.node[14].veinsmobility 	startTime 	42.1
scalar RSUExampleScenario.node[14].veinsmobility 	totalTime 	267.6
scalar RSUExampleScenario.node[14].veinsmobility 	stopTime 	309.8
scalar RSUExampleScenario.node[14].veinsmobility 	minSpeed 	0.25835051097651
scalar RSUExampleScenario.node[14].veinsmobility 	maxSpeed 	13.999958436883
scalar RSUExampleScenario.node[14].veinsmobility 	totalDistance 	3413.8449460943
scalar RSUExampleScenario.node[14].veinsmobility 	totalCO2Emission 	688.23808246344
scalar RSUExampleScenario.node[15].veinsmobility 	startTime 	45.1
scalar RSUExampleScenario.node[15].veinsmobility 	totalTime 	267.7
scalar RSUExampleScenario.node[15].veinsmobility 	stopTime 	312.9
scalar RSUExampleScenario.node[15].veinsmobility 	minSpeed 	0.25144078919338
scalar RSUExampleScenario.node[15].veinsmobility 	maxSpeed 	13.999978182777
scalar RSUExampleScenario.node[15].veinsmobility 	totalDistance 	3409.5455773968
scalar RSUExampleScenario.node[15].veinsmobility 	totalCO2Emission 	694.38817147113
scalar RSUExampleScenario.node[16].veinsmobility 	startTime 	48.1
scalar RSUExampleScenario.node[16].veinsmobility 	totalTime 	267.8
scalar RSUExampleScenario.node[16].veinsmobility 	stopTime 	316
scalar RSUExampleScenario.node[16].veinsmobility 	minSpeed 	0.25717462164001
scalar RSUExampleScenario.node[16].veinsmobility 	maxSpeed 	13.999987207539
scalar RSUExampleScenario.node[16].veinsmobility 	totalDistance 	3413.3838022979
scalar RSUExampleScenario.node[16].veinsmobility 	totalCO2Emission 	692.60874382902
scalar RSUExampleScenario.node[17].veinsmobility 	startTime 	51.1
scalar RSUExampleScenario.node[17].veinsmobility 	totalTime 	267.9
scalar RSUExampleScenario.node[17].veinsmobility 	stopTime 	319.1
scalar RSUExampleScenario.node[17].veinsmobility 	minSpeed 	0.25501496633887
scalar RSUExampleScenario.node[17].veinsmobility 	maxSpeed 	13.999987450289
scalar RSUExampleScenario.node[17].veinsmobility 	totalDistance 	3409.2675349987
scalar RSUExampleScenario.node[17].veinsmobility 	totalCO2Emission 	693.35607302817
scalar RSUExampleScenario.node[18].veinsmobility 	startTime 	54.1
scalar RSUExampleScenario.node[18].veinsmobility 	totalTime 	268.1
scalar RSUExampleScenario.node[18].veinsmobility 	stopTime 	322.3
scalar RSUExampleScenario.node[18].veinsmobility 	minSpeed 	0.25463547673845
scalar RSUExampleScenario.node[18].veinsmobility 	maxSpeed 	13.999905656178
scalar RSUExampleScenario.node[18].veinsmobility 	totalDistance 	3413.8689407227
scalar RSUExampleScenario.node[18].veinsmobility 	totalCO2Emission 	692.44193101601
scalar RSUExampleScenario.node[19].veinsmobility 	startTime 	57.1
scalar RSUExampleScenario.node[19].veinsmobility 	totalTime 	268.3
scalar RSUExampleScenario.node[19].veinsmobility 	stopTime 	325.5
scalar RSUExampleScenario.node[19].veinsmobility 	minSpeed 	0.25257205967186
scalar RSUExampleScenario.node[19].veinsmobility 	maxSpeed 	13.999999744175
scalar RSUExampleScenario.node[19].veinsmobility 	totalDistance 	3409.6912735817
scalar RSUExampleScenario.node[19].veinsmobility 	totalCO2Emission 	693.20244639298
scalar RSUExampleScenario.node[20].veinsmobility 	startTime 	60.1
scalar RSUExampleScenario.node[20].veinsmobility 	totalTime 	268.6
scalar RSUExampleScenario.node[20].veinsmobility 	stopTime 	328.8
scalar RSUExampleScenario.node[20].veinsmobility 	minSpeed 	0.2540623791276
scalar RSUExampleScenario.node[20].veinsmobility 	maxSpeed 	13.999983441324
scalar RSUExampleScenario.node[20].veinsmobility 	totalDistance 	3414.220317477
scalar RSUExampleScenario.node[20].veinsmobility 	totalCO2Emission 	690.56883477883
scalar RSUExampleScenario.node[21].veinsmobility 	startTime 	63.1
scalar RSUExampleScenario.node[21].veinsmobility 	totalTime 	268.9
scalar RSUExampleScenario.node[21].veinsmobility 	stopTime 	332.1
scalar RSUExampleScenario.node[21].veinsmobility 	minSpeed 	0.25174834404909
scalar RSUExampleScenario.node[21].veinsmobility 	maxSpeed 	13.99994561712
scalar RSUExampleScenario.node[21].veinsmobility 	totalDistance 	3409.8660407753
scalar RSUExampleScenario.node[21].veinsmobility 	totalCO2Emission 	693.96937085841
scalar RSUExampleScenario.node[22].veinsmobility 	startTime 	66.1
scalar RSUExampleScenario.node[22].veinsmobility 	totalTime 	269.2
scalar RSUExampleScenario.node[22].veinsmobility 	stopTime 	335.4
scalar RSUExampleScenario.node[22].veinsmobility 	minSpeed 	0.25605743063497
scalar RSUExampleScenario.node[22].veinsmobility 	maxSpeed 	13.999991645522
scalar RSUExampleScenario.node[22].veinsmobility 	totalDistance 	3413.4803339097
scalar RSUExampleScenario.node[22].veinsmobility 	totalCO2Emission 	692.46226855106
scalar RSUExampleScenario.node[23].veinsmobility 	startTime 	69.1
scalar RSUExampleScenario.node[23].veinsmobility 	totalTime 	269.6
scalar RSUExampleScenario.node[23].veinsmobility 	stopTime 	338.8
scalar RSUExampleScenario.node[23].veinsmobility 	minSpeed 	0.25125292916992
scalar RSUExampleScenario.node[23].veinsmobility 	maxSpeed 	13.999993323549
scalar RSUExampleScenario.node[23].veinsmobility 	totalDistance 	3409.8903867339
scalar RSUExampleScenario.node[23].veinsmobility 	totalCO2Emission 	697.370549317
scalar RSUExampleScenario.node[24].veinsmobility 	startTime 	72.1
scalar RSUExampleScenario.node[24].veinsmobility 	totalTime 	270.1
scalar RSUExampleScenario.node[24].veinsmobility 	stopTime 	342.3
scalar RSUExampleScenario.node[24].veinsmobility 	minSpeed 	0.24983796955971
scalar RSUExampleScenario.node[24].veinsmobility 	maxSpeed 	13.999670827263
scalar RSUExampleScenario.node[24].veinsmobility 	totalDistance 	3413.755704766
scalar RSUExampleScenario.node[24].veinsmobility 	totalCO2Emission 	694.92100511788
scalar RSUExampleScenario.node[25].veinsmobility 	startTime 	75.1
scalar RSUExampleScenario.node[25].veinsmobility 	totalTime 	270.6
scalar RSUExampleScenario.node[25].veinsmobility 	stopTime 	345.8
scalar RSUExampleScenario.node[25].veinsmobility 	minSpeed 	0.25929883373762
scalar RSUExampleScenario.node[25].veinsmobility 	maxSpeed 	13.999983322129
scalar RSUExampleScenario.node[25].veinsmobility 	totalDistance 	3409.7860376147
scalar RSUExampleScenario.node[25].veinsmobility 	totalCO2Emission 	695.83298039782
scalar RSUExampleScenario.node[26].veinsmobility 	startTime 	78.1
scalar RSUExampleScenario.node[26].veinsmobility 	totalTime 	271.2
scalar RSUExampleScenario.node[26].veinsmobility 	stopTime 	349.4
scalar RSUExampleScenario.node[26].veinsmobility 	minSpeed 	0.25753037222428
scalar RSUExampleScenario.node[26].veinsmobility 	maxSpeed 	13.999978530041
scalar RSUExampleScenario.node[26].veinsmobility 	totalDistance 	3414.1711919569
scalar RSUExampleScenario.node[26].veinsmobility 	totalCO2Emission 	694.61650555463
scalar RSUExampleScenario.node[27].veinsmobility 	startTime 	81.1
scalar RSUExampleScenario.node[27].veinsmobility 	totalTime 	271.8
scalar RSUExampleScenario.node[27].veinsmobility 	stopTime 	353
scalar RSUExampleScenario.node[27].veinsmobility 	minSpeed 	0.25136839471431
scalar RSUExampleScenario.node[27].veinsmobility 	maxSpeed 	13.999955273243
scalar RSUExampleScenario.node[27].veinsmobility 	totalDistance 	3410.1462301247
scalar RSUExampleScenario.node[27].veinsmobility 	totalCO2Emission 	697.96612411438
scalar RSUExampleScenario.node[28].veinsmobility 	startTime 	84.1
scalar RSUExampleScenario.node[28].veinsmobility 	totalTime 	272.5
scalar RSUExampleScenario.node[28].veinsmobility 	stopTime 	356.7
scalar RSUExampleScenario.node[28].veinsmobility 	minSpeed 	0.25147669922002
scalar RSUExampleScenario.node[28].veinsmobility 	maxSpeed 	13.999928014018
scalar RSUExampleScenario.node[28].veinsmobility 	totalDistance 	3414.0271684289
scalar RSUExampleScenario.node[28].veinsmobility 	totalCO2Emission 	697.36516398315
scalar RSUExampleScenario.node[29].veinsmobility 	startTime 	87.1
scalar RSUExampleScenario.node[29].veinsmobility 	totalTime 	273.2
scalar RSUExampleScenario.node[29].veinsmobility 	stopTime 	360.4
scalar RSUExampleScenario.node[29].veinsmobility 	minSpeed 	0.24905024830229
scalar RSUExampleScenario.node[29].veinsmobility 	maxSpeed 	13.999945634524
scalar RSUExampleScenario.node[29].veinsmobility 	totalDistance 	3409.8350707769
scalar RSUExampleScenario.node[29].veinsmobility 	totalCO2Emission 	694.61433597438
scalar RSUExampleScenario.node[30].veinsmobility 	startTime 	90.1
scalar RSUExampleScenario.node[30].veinsmobility 	totalTime 	273.9
scalar RSUExampleScenario.node[30].veinsmobility 	stopTime 	364.1
scalar RSUExampleScenario.node[30].veinsmobility 	minSpeed 	0.25792498809216
scalar RSUExampleScenario.node[30].veinsmobility 	maxSpeed 	13.999945286261
scalar RSUExampleScenario.node[30].veinsmobility 	totalDistance 	3413.6368460772
scalar RSUExampleScenario.node[30].veinsmobility 	totalCO2Emission 	699.81365953683
scalar RSUExampleScenario.node[31].veinsmobility 	startTime 	93.1
scalar RSUExampleScenario.node[31].veinsmobility 	totalTime 	274.5
scalar RSUExampleScenario.node[31].veinsmobility 	stopTime 	367.7
scalar RSUExampleScenario.node[31].veinsmobility 	minSpeed 	0.24874134792876
scalar RSUExampleScenario.node[31].veinsmobility 	maxSpeed 	13.999882857031
scalar RSUExampleScenario.node[31].veinsmobility 	totalDistance 	3409.6464699453
scalar RSUExampleScenario.node[31].veinsmobility 	totalCO2Emission 	698.12349084388
scalar RSUExampleScenario.node[32].veinsmobility 	startTime 	96.1
scalar RSUExampleScenario.node[32].veinsmobility 	totalTime 	275.2
scalar RSUExampleScenario.node[32].veinsmobility 	stopTime 	371.4
scalar RSUExampleScenario.node[32].veinsmobility 	minSpeed 	0.25240002622316
scalar RSUExampleScenario.node[32].veinsmobility 	maxSpeed 	13.999976704912
scalar RSUExampleScenario.node[32].veinsmobility 	totalDistance 	3414.0674833263
scalar RSUExampleScenario.node[32].veinsmobility 	totalCO2Emission 	698.95160432626
scalar RSUExampleScenario.node[33].veinsmobility 	startTime 	99.1
scalar RSUExampleScenario.node[33].veinsmobility 	totalTime 	275.9
scalar RSUExampleScenario.node[33].veinsmobility 	stopTime 	375.1
scalar RSUExampleScenario.node[33].veinsmobility 	minSpeed 	0.2519977328328
scalar RSUExampleScenario.node[33].veinsmobility 	maxSpeed 	13.999957892362
scalar RSUExampleScenario.node[33].veinsmobility 	totalDistance 	3409.9631064619
scalar RSUExampleScenario.node[33].veinsmobility 	totalCO2Emission 	701.54994433047
scalar RSUExampleScenario.node[34].veinsmobility 	startTime 	102.1
scalar RSUExampleScenario.node[34].veinsmobility 	totalTime 	276.6
scalar RSUExampleScenario.node[34].veinsmobility 	stopTime 	378.8
scalar RSUExampleScenario.node[34].veinsmobility 	minSpeed 	0.25026697604987
scalar RSUExampleScenario.node[34].veinsmobility 	maxSpeed 	13.999905914667
scalar RSUExampleScenario.node[34].veinsmobility 	totalDistance 	3413.7166035424
scalar RSUExampleScenario.node[34].veinsmobility 	totalCO2Emission 	696.75169470885
scalar RSUExampleScenario.node[35].veinsmobility 	startTime 	105.1
scalar RSUExampleScenario.node[35].veinsmobility 	totalTime 	277.3
scalar RSUExampleScenario.node[35].veinsmobility 	stopTime 	382.5
scalar RSUExampleScenario.node[35].veinsmobility 	minSpeed 	0.25631184595311
scalar RSUExampleScenario.node[35].veinsmobility 	maxSpeed 	13.99990126166
scalar RSUExampleScenario.node[35].veinsmobility 	totalDistance 	3410.2380635908
scalar RSUExampleScenario.node[35].veinsmobility 	totalCO2Emission 	699.60484536107
scalar RSUExampleScenario.node[36].veinsmobility 	startTime 	108.1
scalar RSUExampleScenario.node[36].veinsmobility 	totalTime 	278
scalar RSUExampleScenario.node[36].veinsmobility 	stopTime 	386.2
scalar RSUExampleScenario.node[36].veinsmobility 	minSpeed 	0.2487134054706
scalar RSUExampleScenario.node[36].veinsmobility 	maxSpeed 	13.999962346386
scalar RSUExampleScenario.node[36].veinsmobility 	totalDistance 	3414.0574415456
scalar RSUExampleScenario.node[36].veinsmobility 	totalCO2Emission 	695.92490934565
scalar RSUExampleScenario.node[37].veinsmobility 	startTime 	111.1
scalar RSUExampleScenario.node[37].veinsmobility 	totalTime 	278.7
scalar RSUExampleScenario.node[37].veinsmobility 	stopTime 	389.9
scalar RSUExampleScenario.node[37].veinsmobility 	minSpeed 	0.2571978218588
scalar RSUExampleScenario.node[37].veinsmobility 	maxSpeed 	13.999935981459
scalar RSUExampleScenario.node[37].veinsmobility 	totalDistance 	3410.1003656786
scalar RSUExampleScenario.node[37].veinsmobility 	totalCO2Emission 	701.23938596563
scalar RSUExampleScenario.node[38].veinsmobility 	startTime 	114.1
scalar RSUExampleScenario.node[38].veinsmobility 	totalTime 	279.4
scalar RSUExampleScenario.node[38].veinsmobility 	stopTime 	393.6
scalar RSUExampleScenario.node[38].veinsmobility 	minSpeed 	0.24846277482179
scalar RSUExampleScenario.node[38].veinsmobility 	maxSpeed 	13.999901473476
scalar RSUExampleScenario.node[38].veinsmobility 	totalDistance 	3413.8524865185
scalar RSUExampleScenario.node[38].veinsmobility 	totalCO2Emission 	702.78378610841
scalar RSUExampleScenario.node[39].veinsmobility 	startTime 	117.1
scalar RSUExampleScenario.node[39].veinsmobility 	totalTime 	280.1
scalar RSUExampleScenario.node[39].veinsmobility 	stopTime 	397.3
scalar RSUExampleScenario.node[39].veinsmobility 	minSpeed 	0.2505123975121
scalar RSUExampleScenario.node[39].veinsmobility 	maxSpeed 	13.999976639291
scalar RSUExampleScenario.node[39].veinsmobility 	totalDistance 	3409.7973452617
scalar RSUExampleScenario.node[39].veinsmobility 	totalCO2Emission 	703.59673033526
scalar RSUExampleScenario.node[40].veinsmobility 	startTime 	120.1
scalar RSUExampleScenario.node[40].veinsmobility 	totalTime 	280.8
scalar RSUExampleScenario.node[40].veinsmobility 	stopTime 	401
scalar RSUExampleScenario.node[40].veinsmobility 	minSpeed 	0.24730169367557
scalar RSUExampleScenario.node[40].veinsmobility 	maxSpeed 	13.999990319058
scalar RSUExampleScenario.node[40].veinsmobility 	totalDistance 	3413.7444601892
scalar RSUExampleScenario.node[40].veinsmobility 	totalCO2Emission 	700.47346560758
scalar RSUExampleScenario.node[41].veinsmobility 	startTime 	123.1
scalar RSUExampleScenario.node[41].veinsmobility 	totalTime 	281.5
scalar RSUExampleScenario.node[41].veinsmobility 	stopTime 	404.7
scalar RSUExampleScenario.node[41].veinsmobility 	minSpeed 	0.25415525251278
scalar RSUExampleScenario.node[41].veinsmobility 	maxSpeed 	13.99978933898
scalar RSUExampleScenario.node[41].veinsmobility 	totalDistance 	3409.9140217224
scalar RSUExampleScenario.node[41].veinsmobility 	totalCO2Emission 	701.19629779421
scalar RSUExampleScenario.node[42].veinsmobility 	startTime 	126.1
scalar RSUExampleScenario.node[42].veinsmobility 	totalTime 	282.2
scalar RSUExampleScenario.node[42].veinsmobility 	stopTime 	408.4
scalar RSUExampleScenario.node[42].veinsmobility 	minSpeed 	0.2598225761503
scalar RSUExampleScenario.node[42].veinsmobility 	maxSpeed 	13.999885761607
scalar RSUExampleScenario.node[42].veinsmobility 	totalDistance 	3413.5788865018
scalar RSUExampleScenario.node[42].veinsmobility 	totalCO2Emission 	706.91007810868
scalar RSUExampleScenario.node[43].veinsmobility 	startTime 	129.1
scalar RSUExampleScenario.node[43].veinsmobility 	totalTime 	282.9
scalar RSUExampleScenario.node[43].veinsmobility 	stopTime 	412.1
scalar RSUExampleScenario.node[43].veinsmobility 	minSpeed 	0.25527257268038
scalar RSUExampleScenario.node[43].veinsmobility 	maxSpeed 	13.999940628442
scalar RSUExampleScenario.node[43].veinsmobility 	totalDistance 	3409.8814863924
scalar RSUExampleScenario.node[43].veinsmobility 	totalCO2Emission 	705.57803103267
scalar RSUExampleScenario.node[44].veinsmobility 	startTime 	132.1
scalar RSUExampleScenario.node[44].veinsmobility 	totalTime 	283.6
scalar RSUExampleScenario.node[44].veinsmobility 	stopTime 	415.8
scalar RSUExampleScenario.node[44].veinsmobility 	minSpeed 	0.24781818124303
scalar RSUExampleScenario.node[44].veinsmobility 	maxSpeed 	13.999779192002
scalar RSUExampleScenario.node[44].veinsmobility 	totalDistance 	3413.7657442231
scalar RSUExampleScenario.node[44].veinsmobility 	totalCO2Emission 	704.53433785335
scalar RSUExampleScenario.node[45].veinsmobility 	startTime 	135.1
scalar RSUExampleScenario.node[45].veinsmobility 	totalTime 	284.2
scalar RSUExampleScenario.node[45].veinsmobility 	stopTime 	419.4
scalar RSUExampleScenario.node[45].veinsmobility 	minSpeed 	0.25025207965868
scalar RSUExampleScenario.node[45].veinsmobility 	maxSpeed 	13.999905886003
scalar RSUExampleScenario.node[45].veinsmobility 	totalDistance 	3409.54820363
scalar RSUExampleScenario.node[45].veinsmobility 	totalCO2Emission 	704.54680850477
scalar RSUExampleScenario.node[46].veinsmobility 	startTime 	138.1
scalar RSUExampleScenario.node[46].veinsmobility 	totalTime 	284.9
scalar RSUExampleScenario.node[46].veinsmobility 	stopTime 	423.1
scalar RSUExampleScenario.node[46].veinsmobility 	minSpeed 	0.24872120855376
scalar RSUExampleScenario.node[46].veinsmobility 	maxSpeed 	13.999829894386
scalar RSUExampleScenario.node[46].veinsmobility 	totalDistance 	3414.2396773329
scalar RSUExampleScenario.node[46].veinsmobility 	totalCO2Emission 	711.66055417284
scalar RSUExampleScenario.node[47].veinsmobility 	startTime 	141.1
scalar RSUExampleScenario.node[47].veinsmobility 	totalTime 	285.7
scalar RSUExampleScenario.node[47].veinsmobility 	stopTime 	426.9
scalar RSUExampleScenario.node[47].veinsmobility 	minSpeed 	0.25782543861284
scalar RSUExampleScenario.node[47].veinsmobility 	maxSpeed 	13.999909377233
scalar RSUExampleScenario.node[47].veinsmobility 	totalDistance 	3409.7657793282
scalar RSUExampleScenario.node[47].veinsmobility 	totalCO2Emission 	707.36466431746
scalar RSUExampleScenario.node[48].veinsmobility 	startTime 	144.1
scalar RSUExampleScenario.node[48].veinsmobility 	totalTime 	286.4
scalar RSUExampleScenario.node[48].veinsmobility 	stopTime 	430.6
scalar RSUExampleScenario.node[48].veinsmobility 	minSpeed 	0.25794864442525
scalar RSUExampleScenario.node[48].veinsmobility 	maxSpeed 	13.999986143378
scalar RSUExampleScenario.node[48].veinsmobility 	totalDistance 	3413.9348012586
scalar RSUExampleScenario.node[48].veinsmobility 	totalCO2Emission 	706.55486389617
scalar RSUExampleScenario.node[49].veinsmobility 	startTime 	147.1
scalar RSUExampleScenario.node[49].veinsmobility 	totalTime 	287.2
scalar RSUExampleScenario.node[49].veinsmobility 	stopTime 	434.4
scalar RSUExampleScenario.node[49].veinsmobility 	minSpeed 	0.25750213249819
scalar RSUExampleScenario.node[49].veinsmobility 	maxSpeed 	13.999832452484
scalar RSUExampleScenario.node[49].veinsmobility 	totalDistance 	3410.2324035657
scalar RSUExampleScenario.node[49].veinsmobility 	totalCO2Emission 	704.86443390586
scalar RSUExampleScenario.node[50].veinsmobility 	startTime 	150.1
scalar RSUExampleScenario.node[50].veinsmobility 	totalTime 	287.9
scalar RSUExampleScenario.node[50].veinsmobility 	stopTime 	438.1
scalar RSUExampleScenario.node[50].veinsmobility 	minSpeed 	0.24772302123578
scalar RSUExampleScenario.node[50].veinsmobility 	maxSpeed 	13.999977632535
scalar RSUExampleScenario.node[50].veinsmobility 	totalDistance 	3414.2885426942
scalar RSUExampleScenario.node[50].veinsmobility 	totalCO2Emission 	708.69822908488
scalar RSUExampleScenario.node[51].veinsmobility 	startTime 	153.1
scalar RSUExampleScenario.node[51].veinsmobility 	totalTime 	288.5
scalar RSUExampleScenario.node[51].veinsmobility 	stopTime 	441.7
scalar RSUExampleScenario.node[51].veinsmobility 	minSpeed 	0.25041758961836
scalar RSUExampleScenario.node[51].veinsmobility 	maxSpeed 	13.999993658192
scalar RSUExampleScenario.node[51].veinsmobility 	totalDistance 	3409.4206194196
scalar RSUExampleScenario.node[51].veinsmobility 	totalCO2Emission 	711.66130378361
scalar RSUExampleScenario.node[52].veinsmobility 	startTime 	156.1
scalar RSUExampleScenario.node[52].veinsmobility 	totalTime 	289.2
scalar RSUExampleScenario.node[52].veinsmobility 	stopTime 	445.4
scalar RSUExampleScenario.node[52].veinsmobility 	minSpeed 	0.25023265728983
scalar RSUExampleScenario.node[52].veinsmobility 	maxSpeed 	13.999950997194
scalar RSUExampleScenario.node[52].veinsmobility 	totalDistance 	3409.747463591
scalar RSUExampleScenario.node[52].veinsmobility 	totalCO2Emission 	713.93301596729
scalar RSUExampleScenario.node[53].veinsmobility 	startTime 	159.1
scalar RSUExampleScenario.node[53].veinsmobility 	totalTime 	289.9
scalar RSUExampleScenario.node[53].veinsmobility 	stopTime 	449.1
scalar RSUExampleScenario.node[53].veinsmobility 	minSpeed 	0.25376883960445
scalar RSUExampleScenario.node[53].veinsmobility 	maxSpeed 	13.999978136134
scalar RSUExampleScenario.node[53].veinsmobility 	totalDistance 	3413.800013665
scalar RSUExampleScenario.node[53].veinsmobility 	totalCO2Emission 	710.7006487121
scalar RSUExampleScenario.node[54].veinsmobility 	startTime 	162.1
scalar RSUExampleScenario.node[54].veinsmobility 	totalTime 	290.6
scalar RSUExampleScenario.node[54].veinsmobility 	stopTime 	452.8
scalar RSUExampleScenario.node[54].veinsmobility 	minSpeed 	0.25822153623472
scalar RSUExampleScenario.node[54].veinsmobility 	maxSpeed 	13.999938202978
scalar RSUExampleScenario.node[54].veinsmobility 	totalDistance 	3409.373057474
scalar RSUExampleScenario.node[54].veinsmobility 	totalCO2Emission 	711.42537874107
scalar RSUExampleScenario.node[55].veinsmobility 	startTime 	165.1
scalar RSUExampleScenario.node[55].veinsmobility 	totalTime 	291.3
scalar RSUExampleScenario.node[55].veinsmobility 	stopTime 	456.5
scalar RSUExampleScenario.node[55].veinsmobility 	minSpeed 	0.25389745750185
scalar RSUExampleScenario.node[55].veinsmobility 	maxSpeed 	13.999946963107
scalar RSUExampleScenario.node[55].veinsmobility 	totalDistance 	3410.0619185364
scalar RSUExampleScenario.node[55].veinsmobility 	totalCO2Emission 	713.51398217758
scalar RSUExampleScenario.node[56].veinsmobility 	startTime 	168.1
scalar RSUExampleScenario.node[56].veinsmobility 	totalTime 	292
scalar RSUExampleScenario.node[56].veinsmobility 	stopTime 	460.2
scalar RSUExampleScenario.node[56].veinsmobility 	minSpeed 	0.25488379843649
scalar RSUExampleScenario.node[56].veinsmobility 	maxSpeed 	13.999984262101
scalar RSUExampleScenario.node[56].veinsmobility 	totalDistance 	3413.9968969553
scalar RSUExampleScenario.node[56].veinsmobility 	totalCO2Emission 	713.0918053042
scalar RSUExampleScenario.node[57].veinsmobility 	startTime 	171.1
scalar RSUExampleScenario.node[57].veinsmobility 	totalTime 	292.6
scalar RSUExampleScenario.node[57].veinsmobility 	stopTime 	463.8
scalar RSUExampleScenario.node[57].veinsmobility 	minSpeed 	0.25536998095713
scalar RSUExampleScenario.node[57].veinsmobility 	maxSpeed 	13.999966469945
scalar RSUExampleScenario.node[57].veinsmobility 	totalDistance 	3409.5666840588
scalar RSUExampleScenario.node[57].veinsmobility 	totalCO2Emission 	717.20383905199
scalar RSUExampleScenario.node[58].veinsmobility 	startTime 	174.1
scalar RSUExampleScenario.node[58].veinsmobility 	totalTime 	293.2
scalar RSUExampleScenario.node[58].veinsmobility 	stopTime 	467.4
scalar RSUExampleScenario.node[58].veinsmobility 	minSpeed 	0.25518637987808
scalar RSUExampleScenario.node[58].veinsmobility 	maxSpeed 	13.999994124621
scalar RSUExampleScenario.node[58].veinsmobility 	totalDistance 	3413.8946216268
scalar RSUExampleScenario.node[58].veinsmobility 	totalCO2Emission 	716.86898201093
scalar RSUExampleScenario.node[59].veinsmobility 	startTime 	177.1
scalar RSUExampleScenario.node[59].veinsmobility 	totalTime 	293.8
scalar RSUExampleScenario.node[59].veinsmobility 	stopTime 	471
scalar RSUExampleScenario.node[59].veinsmobility 	minSpeed 	0.25706795788603
scalar RSUExampleScenario.node[59].veinsmobility 	maxSpeed 	13.999858593519
scalar RSUExampleScenario.node[59].veinsmobility 	totalDistance 	3409.8013324937
scalar RSUExampleScenario.node[59].veinsmobility 	totalCO2Emission 	714.21723686696
scalar RSUExampleScenario.node[60].veinsmobility 	startTime 	180.1
scalar RSUExampleScenario.node[60].veinsmobility 	totalTime 	294.5
scalar RSUExampleScenario.node[60].veinsmobility 	stopTime 	474.7
scalar RSUExampleScenario.node[60].veinsmobility 	minSpeed 	0.24854708018224
scalar RSUExampleScenario.node[60].veinsmobility 	maxSpeed 	13.999954090703
scalar RSUExampleScenario.node[60].veinsmobility 	totalDistance 	3409.5343646633
scalar RSUExampleScenario.node[60].veinsmobility 	totalCO2Emission 	719.77690826098
scalar RSUExampleScenario.node[61].veinsmobility 	startTime 	183.1
scalar RSUExampleScenario.node[61].veinsmobility 	totalTime 	295.2
scalar RSUExampleScenario.node[61].veinsmobility 	stopTime 	478.4
scalar RSUExampleScenario.node[61].veinsmobility 	minSpeed 	0.25225302253547
scalar RSUExampleScenario.node[61].veinsmobility 	maxSpeed 	13.999882651693
scalar RSUExampleScenario.node[61].veinsmobility 	totalDistance 	3414.0133428774
scalar RSUExampleScenario.node[61].veinsmobility 	totalCO2Emission 	715.93120098251
scalar RSUExampleScenario.node[62].veinsmobility 	startTime 	186.1
scalar RSUExampleScenario.node[62].veinsmobility 	totalTime 	295.9
scalar RSUExampleScenario.node[62].veinsmobility 	stopTime 	482.1
scalar RSUExampleScenario.node[62].veinsmobility 	minSpeed 	0.25796421649773
scalar RSUExampleScenario.node[62].veinsmobility 	maxSpeed 	13.999915093221
scalar RSUExampleScenario.node[62].veinsmobility 	totalDistance 	3409.8857781338
scalar RSUExampleScenario.node[62].veinsmobility 	totalCO2Emission 	714.03228062501
scalar RSUExampleScenario.node[63].veinsmobility 	startTime 	189.1
scalar RSUExampleScenario.node[63].veinsmobility 	totalTime 	296.6
scalar RSUExampleScenario.node[63].veinsmobility 	stopTime 	485.8
scalar RSUExampleScenario.node[63].veinsmobility 	minSpeed 	0.24931302987877
scalar RSUExampleScenario.node[63].veinsmobility 	maxSpeed 	13.999963566095
scalar RSUExampleScenario.node[63].veinsmobility 	totalDistance 	3414.0873859696
scalar RSUExampleScenario.node[63].veinsmobility 	totalCO2Emission 	715.55774229996
scalar RSUExampleScenario.node[64].veinsmobility 	startTime 	192.1
scalar RSUExampleScenario.node[64].veinsmobility 	totalTime 	297.2
scalar RSUExampleScenario.node[64].veinsmobility 	stopTime 	489.4
scalar RSUExampleScenario.node[64].veinsmobility 	minSpeed 	0.24918147539673
scalar RSUExampleScenario.node[64].veinsmobility 	maxSpeed 	13.999665281714
scalar RSUExampleScenario.node[64].veinsmobility 	totalDistance 	3409.7180579902
scalar RSUExampleScenario.node[64].veinsmobility 	totalCO2Emission 	717.88028312138
scalar RSUExampleScenario.node[65].veinsmobility 	startTime 	195.1
scalar RSUExampleScenario.node[65].veinsmobility 	totalTime 	297.9
scalar RSUExampleScenario.node[65].veinsmobility 	stopTime 	493.1
scalar RSUExampleScenario.node[65].veinsmobility 	minSpeed 	0.25428429721599
scalar RSUExampleScenario.node[65].veinsmobility 	maxSpeed 	13.999950081012
scalar RSUExampleScenario.node[65].veinsmobility 	totalDistance 	3414.2432665618
scalar RSUExampleScenario.node[65].veinsmobility 	totalCO2Emission 	720.77024183391
scalar RSUExampleScenario.node[66].veinsmobility 	startTime 	198.1
scalar RSUExampleScenario.node[66].veinsmobility 	totalTime 	298.7
scalar RSUExampleScenario.node[66].veinsmobility 	stopTime 	496.9
scalar RSUExampleScenario.node[66].veinsmobility 	minSpeed 	0.2566899623163
scalar RSUExampleScenario.node[66].veinsmobility 	maxSpeed 	13.999946736309
scalar RSUExampleScenario.node[66].veinsmobility 	totalDistance 	3410.0608231925
scalar RSUExampleScenario.node[66].veinsmobility 	totalCO2Emission 	720.67799595614
scalar RSUExampleScenario.node[67].veinsmobility 	startTime 	201.1
scalar RSUExampleScenario.node[67].veinsmobility 	totalTime 	299.4
scalar RSUExampleScenario.node[67].veinsmobility 	stopTime 	500.6
scalar RSUExampleScenario.node[67].veinsmobility 	minSpeed 	0.25724772749539
scalar RSUExampleScenario.node[67].veinsmobility 	maxSpeed 	13.999992341565
scalar RSUExampleScenario.node[67].veinsmobility 	totalDistance 	3413.7185673101
scalar RSUExampleScenario.node[67].veinsmobility 	totalCO2Emission 	722.99440777098
scalar RSUExampleScenario.node[68].veinsmobility 	startTime 	204.1
scalar RSUExampleScenario.node[68].veinsmobility 	totalTime 	300.1
scalar RSUExampleScenario.node[68].veinsmobility 	stopTime 	504.3
scalar RSUExampleScenario.node[68].veinsmobility 	minSpeed 	0.25256642535934
scalar RSUExampleScenario.node[68].veinsmobility 	maxSpeed 	13.999972312634
scalar RSUExampleScenario.node[68].veinsmobility 	totalDistance 	3410.1004042812
scalar RSUExampleScenario.node[68].veinsmobility 	totalCO2Emission 	719.78710743319
scalar RSUExampleScenario.node[69].veinsmobility 	startTime 	207.1
scalar RSUExampleScenario.node[69].veinsmobility 	totalTime 	300.8
scalar RSUExampleScenario.node[69].veinsmobility 	stopTime 	508
scalar RSUExampleScenario.node[69].veinsmobility 	minSpeed 	0.25494950080058
scalar RSUExampleScenario.node[69].veinsmobility 	maxSpeed 	13.999895613564
scalar RSUExampleScenario.node[69].veinsmobility 	totalDistance 	3414.0802295708
scalar RSUExampleScenario.node[69].veinsmobility 	totalCO2Emission 	726.61948329942
scalar RSUExampleScenario.node[70].veinsmobility 	startTime 	210.1
scalar RSUExampleScenario.node[70].veinsmobility 	totalTime 	301.5
scalar RSUExampleScenario.node[70].veinsmobility 	stopTime 	511.7
scalar RSUExampleScenario.node[70].veinsmobility 	minSpeed 	0.25465097571979
scalar RSUExampleScenario.node[70].veinsmobility 	maxSpeed 	13.999978833781
scalar RSUExampleScenario.node[70].veinsmobility 	totalDistance 	3409.6091392314
scalar RSUExampleScenario.node[70].veinsmobility 	totalCO2Emission 	723.82596292793
scalar RSUExampleScenario.node[71].veinsmobility 	startTime 	213.1
scalar RSUExampleScenario.node[71].veinsmobility 	totalTime 	302.1
scalar RSUExampleScenario.node[71].veinsmobility 	stopTime 	515.3
scalar RSUExampleScenario.node[71].veinsmobility 	minSpeed 	0.25934544673213
scalar RSUExampleScenario.node[71].veinsmobility 	maxSpeed 	13.999974952124
scalar RSUExampleScenario.node[71].veinsmobility 	totalDistance 	3413.5177824087
scalar RSUExampleScenario.node[71].veinsmobility 	totalCO2Emission 	720.96596398912
scalar RSUExampleScenario.node[72].veinsmobility 	startTime 	216.1
scalar RSUExampleScenario.node[72].veinsmobility 	totalTime 	302.8
scalar RSUExampleScenario.node[72].veinsmobility 	stopTime 	519
scalar RSUExampleScenario.node[72].veinsmobility 	minSpeed 	0.24837189922947
scalar RSUExampleScenario.node[72].veinsmobility 	maxSpeed 	13.999923632243
scalar RSUExampleScenario.node[72].veinsmobility 	totalDistance 	3409.7341044988
scalar RSUExampleScenario.node[72].veinsmobility 	totalCO2Emission 	724.25757437061
scalar RSUExampleScenario.node[73].veinsmobility 	startTime 	219.1
scalar RSUExampleScenario.node[73].veinsmobility 	totalTime 	303.5
scalar RSUExampleScenario.node[73].veinsmobility 	stopTime 	522.7
scalar RSUExampleScenario.node[73].veinsmobility 	minSpeed 	0.25924225422554
scalar RSUExampleScenario.node[73].veinsmobility 	maxSpeed 	13.99998688794
scalar RSUExampleScenario.node[73].veinsmobility 	totalDistance 	3413.5903239062
scalar RSUExampleScenario.node[73].veinsmobility 	totalCO2Emission 	723.84408749713
scalar RSUExampleScenario.node[74].veinsmobility 	startTime 	222.1
scalar RSUExampleScenario.node[74].veinsmobility 	totalTime 	304.2
scalar RSUExampleScenario.node[74].veinsmobility 	stopTime 	526.4
scalar RSUExampleScenario.node[74].veinsmobility 	minSpeed 	0.24819504126091
scalar RSUExampleScenario.node[74].veinsmobility 	maxSpeed 	13.999961597829
scalar RSUExampleScenario.node[74].veinsmobility 	totalDistance 	3409.7880470342
scalar RSUExampleScenario.node[74].veinsmobility 	totalCO2Emission 	723.18944718338
scalar RSUExampleScenario.node[75].veinsmobility 	startTime 	225.1
scalar RSUExampleScenario.node[75].veinsmobility 	totalTime 	304.9
scalar RSUExampleScenario.node[75].veinsmobility 	stopTime 	530.1
scalar RSUExampleScenario.node[75].veinsmobility 	minSpeed 	0.25349355935142
scalar RSUExampleScenario.node[75].veinsmobility 	maxSpeed 	13.999976168987
scalar RSUExampleScenario.node[75].veinsmobility 	totalDistance 	3414.0922571317
scalar RSUExampleScenario.node[75].veinsmobility 	totalCO2Emission 	724.79783604423
scalar RSUExampleScenario.node[76].veinsmobility 	startTime 	228.1
scalar RSUExampleScenario.node[76].veinsmobility 	totalTime 	305.5
scalar RSUExampleScenario.node[76].veinsmobility 	stopTime 	533.7
scalar RSUExampleScenario.node[76].veinsmobility 	minSpeed 	0.25530358434841
scalar RSUExampleScenario.node[76].veinsmobility 	maxSpeed 	13.999996206756
scalar RSUExampleScenario.node[76].veinsmobility 	totalDistance 	3409.7348252394
scalar RSUExampleScenario.node[76].veinsmobility 	totalCO2Emission 	728.35181544556
scalar RSUExampleScenario.node[77].veinsmobility 	startTime 	231.1
scalar RSUExampleScenario.node[77].veinsmobility 	totalTime 	306.1
scalar RSUExampleScenario.node[77].veinsmobility 	stopTime 	537.3
scalar RSUExampleScenario.node[77].veinsmobility 	minSpeed 	0.25750356665882
scalar RSUExampleScenario.node[77].veinsmobility 	maxSpeed 	13.999883162617
scalar RSUExampleScenario.node[77].veinsmobility 	totalDistance 	3413.9229973544
scalar RSUExampleScenario.node[77].veinsmobility 	totalCO2Emission 	725.40618595124
scalar RSUExampleScenario.node[78].veinsmobility 	startTime 	234.1
scalar RSUExampleScenario.node[78].veinsmobility 	totalTime 	306.8
scalar RSUExampleScenario.node[78].veinsmobility 	stopTime 	541
scalar RSUExampleScenario.node[78].veinsmobility 	minSpeed 	0.25785227728845
scalar RSUExampleScenario.node[78].veinsmobility 	maxSpeed 	13.999841304538
scalar RSUExampleScenario.node[78].veinsmobility 	totalDistance 	3409.6377165556
scalar RSUExampleScenario.node[78].veinsmobility 	totalCO2Emission 	729.87865160975
scalar RSUExampleScenario.node[79].veinsmobility 	startTime 	237.1
scalar RSUExampleScenario.node[79].veinsmobility 	totalTime 	307.5
scalar RSUExampleScenario.node[79].veinsmobility 	stopTime 	544.7
scalar RSUExampleScenario.node[79].veinsmobility 	minSpeed 	0.24839503002865
scalar RSUExampleScenario.node[79].veinsmobility 	maxSpeed 	13.999572699247
scalar RSUExampleScenario.node[79].veinsmobility 	totalDistance 	3414.0123275193
scalar RSUExampleScenario.node[79].veinsmobility 	totalCO2Emission 	728.71037537548
scalar RSUExampleScenario.node[80].veinsmobility 	startTime 	240.1
scalar RSUExampleScenario.node[80].veinsmobility 	totalTime 	308.2
scalar RSUExampleScenario.node[80].veinsmobility 	stopTime 	548.4
scalar RSUExampleScenario.node[80].veinsmobility 	minSpeed 	0.25480382220587
scalar RSUExampleScenario.node[80].veinsmobility 	maxSpeed 	13.999995329347
scalar RSUExampleScenario.node[80].veinsmobility 	totalDistance 	3409.6565018381
scalar RSUExampleScenario.node[80].veinsmobility 	totalCO2Emission 	733.11402871549
scalar RSUExampleScenario.node[81].veinsmobility 	startTime 	243.1
scalar RSUExampleScenario.node[81].veinsmobility 	totalTime 	308.9
scalar RSUExampleScenario.node[81].veinsmobility 	stopTime 	552.1
scalar RSUExampleScenario.node[81].veinsmobility 	minSpeed 	0.25408124371804
scalar RSUExampleScenario.node[81].veinsmobility 	maxSpeed 	13.999959895466
scalar RSUExampleScenario.node[81].veinsmobility 	totalDistance 	3413.8199421463
scalar RSUExampleScenario.node[81].veinsmobility 	totalCO2Emission 	728.854336506
scalar RSUExampleScenario.node[82].veinsmobility 	startTime 	246.1
scalar RSUExampleScenario.node[82].veinsmobility 	totalTime 	309.6
scalar RSUExampleScenario.node[82].veinsmobility 	stopTime 	555.8
scalar RSUExampleScenario.node[82].veinsmobility 	minSpeed 	0.25763592983177
scalar RSUExampleScenario.node[82].veinsmobility 	maxSpeed 	13.999991555142
scalar RSUExampleScenario.node[82].veinsmobility 	totalDistance 	3410.1639599349
scalar RSUExampleScenario.node[82].veinsmobility 	totalCO2Emission 	726.56405494818
scalar RSUExampleScenario.node[83].veinsmobility 	startTime 	249.1
scalar RSUExampleScenario.node[83].veinsmobility 	totalTime 	310.3
scalar RSUExampleScenario.node[83].veinsmobility 	stopTime 	559.5
scalar RSUExampleScenario.node[83].veinsmobility 	minSpeed 	0.24906145274406
scalar RSUExampleScenario.node[83].veinsmobility 	maxSpeed 	13.999935614672
scalar RSUExampleScenario.node[83].veinsmobility 	totalDistance 	3414.0734170498
scalar RSUExampleScenario.node[83].veinsmobility 	totalCO2Emission 	727.33211959348
scalar RSUExampleScenario.node[84].veinsmobility 	startTime 	252.1
scalar RSUExampleScenario.node[84].veinsmobility 	totalTime 	311
scalar RSUExampleScenario.node[84].veinsmobility 	stopTime 	563.2
scalar RSUExampleScenario.node[84].veinsmobility 	minSpeed 	0.25444710571878
scalar RSUExampleScenario.node[84].veinsmobility 	maxSpeed 	13.999976049459
scalar RSUExampleScenario.node[84].veinsmobility 	totalDistance 	3409.9959442355
scalar RSUExampleScenario.node[84].veinsmobility 	totalCO2Emission 	730.62348654464
scalar RSUExampleScenario.node[85].veinsmobility 	startTime 	255.1
scalar RSUExampleScenario.node[85].veinsmobility 	totalTime 	311.7
scalar RSUExampleScenario.node[85].veinsmobility 	stopTime 	566.9
scalar RSUExampleScenario.node[85].veinsmobility 	minSpeed 	0.25703078448586
scalar RSUExampleScenario.node[85].veinsmobility 	maxSpeed 	13.999894658881
scalar RSUExampleScenario.node[85].veinsmobility 	totalDistance 	3413.675200708
scalar RSUExampleScenario.node[85].veinsmobility 	totalCO2Emission 	728.67498874408
scalar RSUExampleScenario.node[86].veinsmobility 	startTime 	258.1
scalar RSUExampleScenario.node[86].veinsmobility 	totalTime 	312.3
scalar RSUExampleScenario.node[86].veinsmobility 	stopTime 	570.5
scalar RSUExampleScenario.node[86].veinsmobility 	minSpeed 	0.25218158788141
scalar RSUExampleScenario.node[86].veinsmobility 	maxSpeed 	13.999884635427
scalar RSUExampleScenario.node[86].veinsmobility 	totalDistance 	3409.6487213865
scalar RSUExampleScenario.node[86].veinsmobility 	totalCO2Emission 	733.01936856405
scalar RSUExampleScenario.node[87].veinsmobility 	startTime 	261.1
scalar RSUExampleScenario.node[87].veinsmobility 	totalTime 	313
scalar RSUExampleScenario.node[87].veinsmobility 	stopTime 	574.2
scalar RSUExampleScenario.node[87].veinsmobility 	minSpeed 	0.25202640143503
scalar RSUExampleScenario.node[87].veinsmobility 	maxSpeed 	13.999968600024
scalar RSUExampleScenario.node[87].veinsmobility 	totalDistance 	3414.1447000132
scalar RSUExampleScenario.node[87].veinsmobility 	totalCO2Emission 	735.24247406265
scalar RSUExampleScenario.node[88].veinsmobility 	startTime 	264.1
scalar RSUExampleScenario.node[88].veinsmobility 	totalTime 	313.7
scalar RSUExampleScenario.node[88].veinsmobility 	stopTime 	577.9
scalar RSUExampleScenario.node[88].veinsmobility 	minSpeed 	0.2589960886552
scalar RSUExampleScenario.node[88].veinsmobility 	maxSpeed 	13.999967133147
scalar RSUExampleScenario.node[88].veinsmobility 	totalDistance 	3410.1171941468
scalar RSUExampleScenario.node[88].veinsmobility 	totalCO2Emission 	734.49806222517
scalar RSUExampleScenario.node[89].veinsmobility 	startTime 	267.1
scalar RSUExampleScenario.node[89].veinsmobility 	totalTime 	314.4
scalar RSUExampleScenario.node[89].veinsmobility 	stopTime 	581.6
scalar RSUExampleScenario.node[89].veinsmobility 	minSpeed 	0.25386399072199
scalar RSUExampleScenario.node[89].veinsmobility 	maxSpeed 	13.999893954424
scalar RSUExampleScenario.node[89].veinsmobility 	totalDistance 	3410.0685819246
scalar RSUExampleScenario.node[89].veinsmobility 	totalCO2Emission 	735.50638394514
scalar RSUExampleScenario.node[90].veinsmobility 	startTime 	270.1
scalar RSUExampleScenario.node[90].veinsmobility 	totalTime 	315.1
scalar RSUExampleScenario.node[90].veinsmobility 	stopTime 	585.3
scalar RSUExampleScenario.node[90].veinsmobility 	minSpeed 	0.25625190997589
scalar RSUExampleScenario.node[90].veinsmobility 	maxSpeed 	13.999925875161
scalar RSUExampleScenario.node[90].veinsmobility 	totalDistance 	3414.0919065121
scalar RSUExampleScenario.node[90].veinsmobility 	totalCO2Emission 	737.41791387967
scalar RSUExampleScenario.node[91].veinsmobility 	startTime 	273.1
scalar RSUExampleScenario.node[91].veinsmobility 	totalTime 	315.8
scalar RSUExampleScenario.node[91].veinsmobility 	stopTime 	589
scalar RSUExampleScenario.node[91].veinsmobility 	minSpeed 	0.25463551754272
scalar RSUExampleScenario.node[91].veinsmobility 	maxSpeed 	13.999999634272
scalar RSUExampleScenario.node[91].veinsmobility 	totalDistance 	3409.8507608536
scalar RSUExampleScenario.node[91].veinsmobility 	totalCO2Emission 	738.2281841855
scalar RSUExampleScenario.node[92].veinsmobility 	startTime 	276.1
scalar RSUExampleScenario.node[92].veinsmobility 	totalTime 	316.4
scalar RSUExampleScenario.node[92].veinsmobility 	stopTime 	592.6
scalar RSUExampleScenario.node[92].veinsmobility 	minSpeed 	0.25955971746612
scalar RSUExampleScenario.node[92].veinsmobility 	maxSpeed 	13.999919945421
scalar RSUExampleScenario.node[92].veinsmobility 	totalDistance 	3413.8912312476
scalar RSUExampleScenario.node[92].veinsmobility 	totalCO2Emission 	741.35707171351
scalar RSUExampleScenario.node[93].veinsmobility 	startTime 	279.1
scalar RSUExampleScenario.node[93].veinsmobility 	totalTime 	317.1
scalar RSUExampleScenario.node[93].veinsmobility 	stopTime 	596.3
scalar RSUExampleScenario.node[93].veinsmobility 	minSpeed 	0.24853357437789
scalar RSUExampleScenario.node[93].veinsmobility 	maxSpeed 	13.999976989159
scalar RSUExampleScenario.node[93].veinsmobility 	totalDistance 	3410.1482840162
scalar RSUExampleScenario.node[93].veinsmobility 	totalCO2Emission 	736.81615913702
scalar RSUExampleScenario.node[94].veinsmobility 	startTime 	282.1
scalar RSUExampleScenario.node[94].veinsmobility 	totalTime 	317.8
scalar RSUExampleScenario.node[94].veinsmobility 	stopTime 	600
scalar RSUExampleScenario.node[94].veinsmobility 	minSpeed 	0.25347657148493
scalar RSUExampleScenario.node[94].veinsmobility 	maxSpeed 	13.999968463425
scalar RSUExampleScenario.node[94].veinsmobility 	totalDistance 	3414.1418222773
scalar RSUExampleScenario.node[94].veinsmobility 	totalCO2Emission 	739.10850638394
scalar RSUExampleScenario.node[95].veinsmobility 	startTime 	285.1
scalar RSUExampleScenario.node[95].veinsmobility 	totalTime 	318.5
scalar RSUExampleScenario.node[95].veinsmobility 	stopTime 	603.7
scalar RSUExampleScenario.node[95].veinsmobility 	minSpeed 	0.25799851623736
scalar RSUExampleScenario.node[95].veinsmobility 	maxSpeed 	13.999974590966
scalar RSUExampleScenario.node[95].veinsmobility 	totalDistance 	3410.0878089838
scalar RSUExampleScenario.node[95].veinsmobility 	totalCO2Emission 	740.60517608582
scalar RSUExampleScenario.node[96].veinsmobility 	startTime 	288.1
scalar RSUExampleScenario.node[96].veinsmobility 	totalTime 	319.2
scalar RSUExampleScenario.node[96].veinsmobility 	stopTime 	607.4
scalar RSUExampleScenario.node[96].veinsmobility 	minSpeed 	0.2575949774012
scalar RSUExampleScenario.node[96].veinsmobility 	maxSpeed 	13.999923082939
scalar RSUExampleScenario.node[96].veinsmobility 	totalDistance 	3414.243283389
scalar RSUExampleScenario.node[96].veinsmobility 	totalCO2Emission 	743.91594283653
scalar RSUExampleScenario.node[97].veinsmobility 	startTime 	291.1
scalar RSUExampleScenario.node[97].veinsmobility 	totalTime 	319.9
scalar RSUExampleScenario.node[97].veinsmobility 	stopTime 	611.1
scalar RSUExampleScenario.node[97].veinsmobility 	minSpeed 	0.2474244264781
scalar RSUExampleScenario.node[97].veinsmobility 	maxSpeed 	13.999995416217
scalar RSUExampleScenario.node[97].veinsmobility 	totalDistance 	3410.0034681959
scalar RSUExampleScenario.node[97].veinsmobility 	totalCO2Emission 	737.87961052681
scalar RSUExampleScenario.node[98].veinsmobility 	startTime 	294.1
scalar RSUExampleScenario.node[98].veinsmobility 	totalTime 	320.6
scalar RSUExampleScenario.node[98].veinsmobility 	stopTime 	614.8
scalar RSUExampleScenario.node[98].veinsmobility 	minSpeed 	0.25506386633078
scalar RSUExampleScenario.node[98].veinsmobility 	maxSpeed 	13.99999897449
scalar RSUExampleScenario.node[98].veinsmobility 	totalDistance 	3413.8495632532
scalar RSUExampleScenario.node[98].veinsmobility 	totalCO2Emission 	740.06556039517
scalar RSUExampleScenario.node[99].veinsmobility 	startTime 	297.1
scalar RSUExampleScenario.node[99].veinsmobility 	totalTime 	321.3
scalar RSUExampleScenario.node[99].veinsmobility 	stopTime 	618.5
scalar RSUExampleScenario.node[99].veinsmobility 	minSpeed 	0.25604672703147
scalar RSUExampleScenario.node[99].veinsmobility 	maxSpeed 	13.999987512368
scalar RSUExampleScenario.node[99].veinsmobility 	totalDistance 	3409.8068469309
scalar RSUExampleScenario.node[99].veinsmobility 	totalCO2Emission 	744.77338941635
scalar RSUExampleScenario.node[100].veinsmobility 	startTime 	300.1
scalar RSUExampleScenario.node[100].veinsmobility 	totalTime 	322
scalar RSUExampleScenario.node[100].veinsmobility 	stopTime 	622.2
scalar RSUExampleScenario.node[100].veinsmobility 	minSpeed 	0.2520032936607
scalar RSUExampleScenario.node[100].veinsmobility 	maxSpeed 	13.999883305058
scalar RSUExampleScenario.node[100].veinsmobility 	totalDistance 	3414.0458974445
scalar RSUExampleScenario.node[100].veinsmobility 	totalCO2Emission 	744.31660744696
scalar RSUExampleScenario.node[101].veinsmobility 	startTime 	303.1
scalar RSUExampleScenario.node[101].veinsmobility 	totalTime 	322.6
scalar RSUExampleScenario.node[101].veinsmobility 	stopTime 	625.8
scalar RSUExampleScenario.node[101].veinsmobility 	minSpeed 	0.25744364644215
scalar RSUExampleScenario.node[101].veinsmobility 	maxSpeed 	13.999996367812
scalar RSUExampleScenario.node[101].veinsmobility 	totalDistance 	3409.5554884429
scalar RSUExampleScenario.node[101].veinsmobility 	totalCO2Emission 	746.9263744161
scalar RSUExampleScenario.node[102].veinsmobility 	startTime 	306.1
scalar RSUExampleScenario.node[102].veinsmobility 	totalTime 	323.3
scalar RSUExampleScenario.node[102].veinsmobility 	stopTime 	629.5
scalar RSUExampleScenario.node[102].veinsmobility 	minSpeed 	0.2496819888663
scalar RSUExampleScenario.node[102].veinsmobility 	maxSpeed 	13.999997107834
scalar RSUExampleScenario.node[102].veinsmobility 	totalDistance 	3414.0325376009
scalar RSUExampleScenario.node[102].veinsmobility 	totalCO2Emission 	745.72252286663
scalar RSUExampleScenario.node[103].veinsmobility 	startTime 	309.1
scalar RSUExampleScenario.node[103].veinsmobility 	totalTime 	323.9
scalar RSUExampleScenario.node[103].veinsmobility 	stopTime 	633.1
scalar RSUExampleScenario.node[103].veinsmobility 	minSpeed 	0.25571271609352
scalar RSUExampleScenario.node[103].veinsmobility 	maxSpeed 	13.999595760817
scalar RSUExampleScenario.node[103].veinsmobility 	totalDistance 	3409.5227688835
scalar RSUExampleScenario.node[103].veinsmobility 	totalCO2Emission 	745.14842873509
scalar RSUExampleScenario.node[104].veinsmobility 	startTime 	312.1
scalar RSUExampleScenario.node[104].veinsmobility 	totalTime 	324.6
scalar RSUExampleScenario.node[104].veinsmobility 	stopTime 	636.8
scalar RSUExampleScenario.node[104].veinsmobility 	minSpeed 	0.25226216954435
scalar RSUExampleScenario.node[104].veinsmobility 	maxSpeed 	13.999811123121
scalar RSUExampleScenario.node[104].veinsmobility 	totalDistance 	3413.5636001006
scalar RSUExampleScenario.node[104].veinsmobility 	totalCO2Emission 	744.45741733845
scalar RSUExampleScenario.node[105].veinsmobility 	startTime 	315.1
scalar RSUExampleScenario.node[105].veinsmobility 	totalTime 	325.4
scalar RSUExampleScenario.node[105].veinsmobility 	stopTime 	640.6
scalar RSUExampleScenario.node[105].veinsmobility 	minSpeed 	0.25047600411787
scalar RSUExampleScenario.node[105].veinsmobility 	maxSpeed 	13.999930336692
scalar RSUExampleScenario.node[105].veinsmobility 	totalDistance 	3410.2552542028
scalar RSUExampleScenario.node[105].veinsmobility 	totalCO2Emission 	746.7402710561
scalar RSUExampleScenario.node[106].veinsmobility 	startTime 	318.1
scalar RSUExampleScenario.node[106].veinsmobility 	totalTime 	326.2
scalar RSUExampleScenario.node[106].veinsmobility 	stopTime 	644.4
scalar RSUExampleScenario.node[106].veinsmobility 	minSpeed 	0.25333677868429
scalar RSUExampleScenario.node[106].veinsmobility 	maxSpeed 	13.999923362131
scalar RSUExampleScenario.node[106].veinsmobility 	totalDistance 	3414.3033066409
scalar RSUExampleScenario.node[106].veinsmobility 	totalCO2Emission 	747.67508223951
scalar RSUExampleScenario.node[107].veinsmobility 	startTime 	321.1
scalar RSUExampleScenario.node[107].veinsmobility 	totalTime 	326.9
scalar RSUExampleScenario.node[107].veinsmobility 	stopTime 	648.1
scalar RSUExampleScenario.node[107].veinsmobility 	minSpeed 	0.25781715656002
scalar RSUExampleScenario.node[107].veinsmobility 	maxSpeed 	13.999979517565
scalar RSUExampleScenario.node[107].veinsmobility 	totalDistance 	3409.8137473222
scalar RSUExampleScenario.node[107].veinsmobility 	totalCO2Emission 	747.04031960399
scalar RSUExampleScenario.node[108].veinsmobility 	startTime 	324.1
scalar RSUExampleScenario.node[108].veinsmobility 	totalTime 	327.5
scalar RSUExampleScenario.node[108].veinsmobility 	stopTime 	651.7
scalar RSUExampleScenario.node[108].veinsmobility 	minSpeed 	0.24807467950089
scalar RSUExampleScenario.node[108].veinsmobility 	maxSpeed 	13.999979541718
scalar RSUExampleScenario.node[108].veinsmobility 	totalDistance 	3413.7505010987
scalar RSUExampleScenario.node[108].veinsmobility 	totalCO2Emission 	749.51139527606
scalar RSUExampleScenario.node[109].veinsmobility 	startTime 	327.1
scalar RSUExampleScenario.node[109].veinsmobility 	totalTime 	328.2
scalar RSUExampleScenario.node[109].veinsmobility 	stopTime 	655.4
scalar RSUExampleScenario.node[109].veinsmobility 	minSpeed 	0.25843290800415
scalar RSUExampleScenario.node[109].veinsmobility 	maxSpeed 	13.999853714865
scalar RSUExampleScenario.node[109].veinsmobility 	totalDistance 	3410.0454521787
scalar RSUExampleScenario.node[109].veinsmobility 	totalCO2Emission 	749.05376001675
scalar RSUExampleScenario.node[110].veinsmobility 	startTime 	330.1
scalar RSUExampleScenario.node[110].veinsmobility 	totalTime 	329
scalar RSUExampleScenario.node[110].veinsmobility 	stopTime 	659.2
scalar RSUExampleScenario.node[110].veinsmobility 	minSpeed 	0.25896192995831
scalar RSUExampleScenario.node[110].veinsmobility 	maxSpeed 	13.999747998575
scalar RSUExampleScenario.node[110].veinsmobility 	totalDistance 	3414.1681440931
scalar RSUExampleScenario.node[110].veinsmobility 	totalCO2Emission 	750.28642710078
scalar RSUExampleScenario.node[111].veinsmobility 	startTime 	333.1
scalar RSUExampleScenario.node[111].veinsmobility 	totalTime 	329.7
scalar RSUExampleScenario.node[111].veinsmobility 	stopTime 	662.9
scalar RSUExampleScenario.node[111].veinsmobility 	minSpeed 	0.2539498044753
scalar RSUExampleScenario.node[111].veinsmobility 	maxSpeed 	13.999959096331
scalar RSUExampleScenario.node[111].veinsmobility 	totalDistance 	3409.9835592901
scalar RSUExampleScenario.node[111].veinsmobility 	totalCO2Emission 	748.81220922834
scalar RSUExampleScenario.node[112].veinsmobility 	startTime 	336.1
scalar RSUExampleScenario.node[112].veinsmobility 	totalTime 	330.4
scalar RSUExampleScenario.node[112].veinsmobility 	stopTime 	666.6
scalar RSUExampleScenario.node[112].veinsmobility 	minSpeed 	0.25027879011305
scalar RSUExampleScenario.node[112].veinsmobility 	maxSpeed 	13.999931600622
scalar RSUExampleScenario.node[112].veinsmobility 	totalDistance 	3414.1344013523
scalar RSUExampleScenario.node[112].veinsmobility 	totalCO2Emission 	749.08686749977
scalar RSUExampleScenario.node[113].veinsmobility 	startTime 	339.1
scalar RSUExampleScenario.node[113].veinsmobility 	totalTime 	331
scalar RSUExampleScenario.node[113].veinsmobility 	stopTime 	670.2
scalar RSUExampleScenario.node[113].veinsmobility 	minSpeed 	0.2477458865908
scalar RSUExampleScenario.node[113].veinsmobility 	maxSpeed 	13.999968528773
scalar RSUExampleScenario.node[113].veinsmobility 	totalDistance 	3409.4788300788
scalar RSUExampleScenario.node[113].veinsmobility 	totalCO2Emission 	751.61780278485
scalar RSUExampleScenario.node[114].veinsmobility 	startTime 	342.1
scalar RSUExampleScenario.node[114].veinsmobility 	totalTime 	331.7
scalar RSUExampleScenario.node[114].veinsmobility 	stopTime 	673.9
scalar RSUExampleScenario.node[114].veinsmobility 	minSpeed 	0.24701869326457
scalar RSUExampleScenario.node[114].veinsmobility 	maxSpeed 	13.999834064678
scalar RSUExampleScenario.node[114].veinsmobility 	totalDistance 	3414.1001605588
scalar RSUExampleScenario.node[114].veinsmobility 	totalCO2Emission 	750.17212125542
scalar RSUExampleScenario.node[115].veinsmobility 	startTime 	345.1
scalar RSUExampleScenario.node[115].veinsmobility 	totalTime 	332.5
scalar RSUExampleScenario.node[115].veinsmobility 	stopTime 	677.7
scalar RSUExampleScenario.node[115].veinsmobility 	minSpeed 	0.2543438359017
scalar RSUExampleScenario.node[115].veinsmobility 	maxSpeed 	13.999991520606
scalar RSUExampleScenario.node[115].veinsmobility 	totalDistance 	3409.6550976712
scalar RSUExampleScenario.node[115].veinsmobility 	totalCO2Emission 	754.3408449287
scalar RSUExampleScenario.node[116].veinsmobility 	startTime 	348.1
scalar RSUExampleScenario.node[116].veinsmobility 	totalTime 	333.2
scalar RSUExampleScenario.node[116].veinsmobility 	stopTime 	681.4
scalar RSUExampleScenario.node[116].veinsmobility 	minSpeed 	0.24918897498585
scalar RSUExampleScenario.node[116].veinsmobility 	maxSpeed 	13.999977822285
scalar RSUExampleScenario.node[116].veinsmobility 	totalDistance 	3413.73063395
scalar RSUExampleScenario.node[116].veinsmobility 	totalCO2Emission 	755.84533005833
scalar RSUExampleScenario.node[117].veinsmobility 	startTime 	351.1
scalar RSUExampleScenario.node[117].veinsmobility 	totalTime 	333.9
scalar RSUExampleScenario.node[117].veinsmobility 	stopTime 	685.1
scalar RSUExampleScenario.node[117].veinsmobility 	minSpeed 	0.25084935731743
scalar RSUExampleScenario.node[117].veinsmobility 	maxSpeed 	13.999998939077
scalar RSUExampleScenario.node[117].veinsmobility 	totalDistance 	3409.7995144117
scalar RSUExampleScenario.node[117].veinsmobility 	totalCO2Emission 	752.89322809322
scalar RSUExampleScenario.node[118].veinsmobility 	startTime 	354.1
scalar RSUExampleScenario.node[118].veinsmobility 	totalTime 	334.5
scalar RSUExampleScenario.node[118].veinsmobility 	stopTime 	688.7
scalar RSUExampleScenario.node[118].veinsmobility 	minSpeed 	0.25624974073609
scalar RSUExampleScenario.node[118].veinsmobility 	maxSpeed 	13.999942074253
scalar RSUExampleScenario.node[118].veinsmobility 	totalDistance 	3413.780078927
scalar RSUExampleScenario.node[118].veinsmobility 	totalCO2Emission 	754.51959718147
scalar RSUExampleScenario.node[119].veinsmobility 	startTime 	357.1
scalar RSUExampleScenario.node[119].veinsmobility 	totalTime 	335.2
scalar RSUExampleScenario.node[119].veinsmobility 	stopTime 	692.4
scalar RSUExampleScenario.node[119].veinsmobility 	minSpeed 	0.25654675978189
scalar RSUExampleScenario.node[119].veinsmobility 	maxSpeed 	13.99998177819
scalar RSUExampleScenario.node[119].veinsmobility 	totalDistance 	3409.9255583096
scalar RSUExampleScenario.node[119].veinsmobility 	totalCO2Emission 	756.16366943807
scalar RSUExampleScenario.node[120].veinsmobility 	startTime 	360.1
scalar RSUExampleScenario.node[120].veinsmobility 	totalTime 	335.9
scalar RSUExampleScenario.node[120].veinsmobility 	stopTime 	696.1
scalar RSUExampleScenario.node[120].veinsmobility 	minSpeed 	0.2592691917019
scalar RSUExampleScenario.node[120].veinsmobility 	maxSpeed 	13.999987517211
scalar RSUExampleScenario.node[120].veinsmobility 	totalDistance 	3414.0434009532
scalar RSUExampleScenario.node[120].veinsmobility 	totalCO2Emission 	756.87395212204
scalar RSUExampleScenario.node[121].veinsmobility 	startTime 	363.1
scalar RSUExampleScenario.node[121].veinsmobility 	totalTime 	336.5
scalar RSUExampleScenario.node[121].veinsmobility 	stopTime 	699.7
scalar RSUExampleScenario.node[121].veinsmobility 	minSpeed 	0.25668579746899
scalar RSUExampleScenario.node[121].veinsmobility 	maxSpeed 	13.999981366484
scalar RSUExampleScenario.node[121].veinsmobility 	totalDistance 	3409.4934253421
scalar RSUExampleScenario.node[121].veinsmobility 	totalCO2Emission 	762.00328218799
scalar RSUExampleScenario.node[122].veinsmobility 	startTime 	366.1
scalar RSUExampleScenario.node[122].veinsmobility 	totalTime 	337.2
scalar RSUExampleScenario.node[122].veinsmobility 	stopTime 	703.4
scalar RSUExampleScenario.node[122].veinsmobility 	minSpeed 	0.25802101491392
scalar RSUExampleScenario.node[122].veinsmobility 	maxSpeed 	13.999998858776
scalar RSUExampleScenario.node[122].veinsmobility 	totalDistance 	3413.8798836603
scalar RSUExampleScenario.node[122].veinsmobility 	totalCO2Emission 	761.92399329435
scalar RSUExampleScenario.node[123].veinsmobility 	startTime 	369.1
scalar RSUExampleScenario.node[123].veinsmobility 	totalTime 	338
scalar RSUExampleScenario.node[123].veinsmobility 	stopTime 	707.2
scalar RSUExampleScenario.node[123].veinsmobility 	minSpeed 	0.2561968215676
scalar RSUExampleScenario.node[123].veinsmobility 	maxSpeed 	13.999899002549
scalar RSUExampleScenario.node[123].veinsmobility 	totalDistance 	3410.23238142
scalar RSUExampleScenario.node[123].veinsmobility 	totalCO2Emission 	760.39470456657
scalar RSUExampleScenario.node[124].veinsmobility 	startTime 	372.1
scalar RSUExampleScenario.node[124].veinsmobility 	totalTime 	338.7
scalar RSUExampleScenario.node[124].veinsmobility 	stopTime 	710.9
scalar RSUExampleScenario.node[124].veinsmobility 	minSpeed 	0.25675000360492
scalar RSUExampleScenario.node[124].veinsmobility 	maxSpeed 	13.99993026647
scalar RSUExampleScenario.node[124].veinsmobility 	totalDistance 	3410.0946886335
scalar RSUExampleScenario.node[124].veinsmobility 	totalCO2Emission 	760.75142557319
scalar RSUExampleScenario.node[125].veinsmobility 	startTime 	375.1
scalar RSUExampleScenario.node[125].veinsmobility 	totalTime 	339.4
scalar RSUExampleScenario.node[125].veinsmobility 	stopTime 	714.6
scalar RSUExampleScenario.node[125].veinsmobility 	minSpeed 	0.25403485168284
scalar RSUExampleScenario.node[125].veinsmobility 	maxSpeed 	13.999971864063
scalar RSUExampleScenario.node[125].veinsmobility 	totalDistance 	3414.1157977382
scalar RSUExampleScenario.node[125].veinsmobility 	totalCO2Emission 	763.16019528689
scalar RSUExampleScenario.node[126].veinsmobility 	startTime 	378.1
scalar RSUExampleScenario.node[126].veinsmobility 	totalTime 	340.1
scalar RSUExampleScenario.node[126].veinsmobility 	stopTime 	718.3
scalar RSUExampleScenario.node[126].veinsmobility 	minSpeed 	0.24755994438613
scalar RSUExampleScenario.node[126].veinsmobility 	maxSpeed 	13.99995793731
scalar RSUExampleScenario.node[126].veinsmobility 	totalDistance 	3410.1038361658
scalar RSUExampleScenario.node[126].veinsmobility 	totalCO2Emission 	761.88241408766
scalar RSUExampleScenario.node[127].veinsmobility 	startTime 	381.1
scalar RSUExampleScenario.node[127].veinsmobility 	totalTime 	340.7
scalar RSUExampleScenario.node[127].veinsmobility 	stopTime 	721.9
scalar RSUExampleScenario.node[127].veinsmobility 	minSpeed 	0.24721300647059
scalar RSUExampleScenario.node[127].veinsmobility 	maxSpeed 	13.999978464541
scalar RSUExampleScenario.node[127].veinsmobility 	totalDistance 	3413.8740121707
scalar RSUExampleScenario.node[127].veinsmobility 	totalCO2Emission 	767.07177678249
scalar RSUExampleScenario.node[128].veinsmobility 	startTime 	384.1
scalar RSUExampleScenario.node[128].veinsmobility 	totalTime 	341.3
scalar RSUExampleScenario.node[128].veinsmobility 	stopTime 	725.5
scalar RSUExampleScenario.node[128].veinsmobility 	minSpeed 	0.25184942833916
scalar RSUExampleScenario.node[128].veinsmobility 	maxSpeed 	13.999949082078
scalar RSUExampleScenario.node[128].veinsmobility 	totalDistance 	3409.6338167892
scalar RSUExampleScenario.node[128].veinsmobility 	totalCO2Emission 	764.20814223458
scalar RSUExampleScenario.node[129].veinsmobility 	startTime 	387.1
scalar RSUExampleScenario.node[129].veinsmobility 	totalTime 	342
scalar RSUExampleScenario.node[129].veinsmobility 	stopTime 	729.2
scalar RSUExampleScenario.node[129].veinsmobility 	minSpeed 	0.25880131332972
scalar RSUExampleScenario.node[129].veinsmobility 	maxSpeed 	13.999896929979
scalar RSUExampleScenario.node[129].veinsmobility 	totalDistance 	3409.7539243291
scalar RSUExampleScenario.node[129].veinsmobility 	totalCO2Emission 	763.55746922058
scalar RSUExampleScenario.node[130].veinsmobility 	startTime 	390.1
scalar RSUExampleScenario.node[130].veinsmobility 	totalTime 	342.7
scalar RSUExampleScenario.node[130].veinsmobility 	stopTime 	732.9
scalar RSUExampleScenario.node[130].veinsmobility 	minSpeed 	0.25143118087319
scalar RSUExampleScenario.node[130].veinsmobility 	maxSpeed 	13.999929622943
scalar RSUExampleScenario.node[130].veinsmobility 	totalDistance 	3413.867243362
scalar RSUExampleScenario.node[130].veinsmobility 	totalCO2Emission 	763.93352300494
scalar RSUExampleScenario.node[131].veinsmobility 	startTime 	393.1
scalar RSUExampleScenario.node[131].veinsmobility 	totalTime 	343.3
scalar RSUExampleScenario.node[131].veinsmobility 	stopTime 	736.5
scalar RSUExampleScenario.node[131].veinsmobility 	minSpeed 	0.2565805659506
scalar RSUExampleScenario.node[131].veinsmobility 	maxSpeed 	13.999910643131
scalar RSUExampleScenario.node[131].veinsmobility 	totalDistance 	3409.5911398169
scalar RSUExampleScenario.node[131].veinsmobility 	totalCO2Emission 	764.76644737071
scalar RSUExampleScenario.node[132].veinsmobility 	startTime 	396.1
scalar RSUExampleScenario.node[132].veinsmobility 	totalTime 	343.9
scalar RSUExampleScenario.node[132].veinsmobility 	stopTime 	740.1
scalar RSUExampleScenario.node[132].veinsmobility 	minSpeed 	0.25761461352254
scalar RSUExampleScenario.node[132].veinsmobility 	maxSpeed 	13.99997301915
scalar RSUExampleScenario.node[132].veinsmobility 	totalDistance 	3413.974469537
scalar RSUExampleScenario.node[132].veinsmobility 	totalCO2Emission 	766.88147497271
scalar RSUExampleScenario.node[133].veinsmobility 	startTime 	399.1
scalar RSUExampleScenario.node[133].veinsmobility 	totalTime 	344.5
scalar RSUExampleScenario.node[133].veinsmobility 	stopTime 	743.7
scalar RSUExampleScenario.node[133].veinsmobility 	minSpeed 	0.25039019803144
scalar RSUExampleScenario.node[133].veinsmobility 	maxSpeed 	13.999948982012
scalar RSUExampleScenario.node[133].veinsmobility 	totalDistance 	3409.6106337076
scalar RSUExampleScenario.node[133].veinsmobility 	totalCO2Emission 	766.57883905516
scalar RSUExampleScenario.node[134].veinsmobility 	startTime 	402.1
scalar RSUExampleScenario.node[134].veinsmobility 	totalTime 	345.2
scalar RSUExampleScenario.node[134].veinsmobility 	stopTime 	747.4
scalar RSUExampleScenario.node[134].veinsmobility 	minSpeed 	0.25243173356447
scalar RSUExampleScenario.node[134].veinsmobility 	maxSpeed 	13.999874053134
scalar RSUExampleScenario.node[134].veinsmobility 	totalDistance 	3414.2928536576
scalar RSUExampleScenario.node[134].veinsmobility 	totalCO2Emission 	767.45872603724
scalar RSUExampleScenario.node[135].veinsmobility 	startTime 	405.1
scalar RSUExampleScenario.node[135].veinsmobility 	totalTime 	346
scalar RSUExampleScenario.node[135].veinsmobility 	stopTime 	751.2
scalar RSUExampleScenario.node[135].veinsmobility 	minSpeed 	0.25296170669911
scalar RSUExampleScenario.node[135].veinsmobility 	maxSpeed 	13.99997138489
scalar RSUExampleScenario.node[135].veinsmobility 	totalDistance 	3410.0006466055
scalar RSUExampleScenario.node[135].veinsmobility 	totalCO2Emission 	767.04274233321
scalar RSUExampleScenario.node[136].veinsmobility 	startTime 	408.1
scalar RSUExampleScenario.node[136].veinsmobility 	totalTime 	346.7
scalar RSUExampleScenario.node[136].veinsmobility 	stopTime 	754.9
scalar RSUExampleScenario.node[136].veinsmobility 	minSpeed 	0.25867172540096
scalar RSUExampleScenario.node[136].veinsmobility 	maxSpeed 	13.999987051992
scalar RSUExampleScenario.node[136].veinsmobility 	totalDistance 	3414.3399580053
scalar RSUExampleScenario.node[136].veinsmobility 	totalCO2Emission 	765.87033017565
scalar RSUExampleScenario.node[137].veinsmobility 	startTime 	411.1
scalar RSUExampleScenario.node[137].veinsmobility 	totalTime 	347.4
scalar RSUExampleScenario.node[137].veinsmobility 	stopTime 	758.6
scalar RSUExampleScenario.node[137].veinsmobility 	minSpeed 	0.25441025995137
scalar RSUExampleScenario.node[137].veinsmobility 	maxSpeed 	13.99999011039
scalar RSUExampleScenario.node[137].veinsmobility 	totalDistance 	3409.6741070758
scalar RSUExampleScenario.node[137].veinsmobility 	totalCO2Emission 	769.33810102687
scalar RSUExampleScenario.node[138].veinsmobility 	startTime 	414.1
scalar RSUExampleScenario.node[138].veinsmobility 	totalTime 	348.1
scalar RSUExampleScenario.node[138].veinsmobility 	stopTime 	762.3
scalar RSUExampleScenario.node[138].veinsmobility 	minSpeed 	0.25136761741736
scalar RSUExampleScenario.node[138].veinsmobility 	maxSpeed 	13.999994417646
scalar RSUExampleScenario.node[138].veinsmobility 	totalDistance 	3414.429930343
scalar RSUExampleScenario.node[138].veinsmobility 	totalCO2Emission 	771.29190973229
scalar RSUExampleScenario.node[139].veinsmobility 	startTime 	417.1
scalar RSUExampleScenario.node[139].veinsmobility 	totalTime 	348.8
scalar RSUExampleScenario.node[139].veinsmobility 	stopTime 	766
scalar RSUExampleScenario.node[139].veinsmobility 	minSpeed 	0.24893723466434
scalar RSUExampleScenario.node[139].veinsmobility 	maxSpeed 	13.999989503608
scalar RSUExampleScenario.node[139].veinsmobility 	totalDistance 	3410.1614098179
scalar RSUExampleScenario.node[139].veinsmobility 	totalCO2Emission 	769.99727728387
scalar RSUExampleScenario.node[140].veinsmobility 	startTime 	420.1
scalar RSUExampleScenario.node[140].veinsmobility 	totalTime 	349.5
scalar RSUExampleScenario.node[140].veinsmobility 	stopTime 	769.7
scalar RSUExampleScenario.node[140].veinsmobility 	minSpeed 	0.25436694562528
scalar RSUExampleScenario.node[140].veinsmobility 	maxSpeed 	13.999887987878
scalar RSUExampleScenario.node[140].veinsmobility 	totalDistance 	3414.0650300324
scalar RSUExampleScenario.node[140].veinsmobility 	totalCO2Emission 	769.61030593689
scalar RSUExampleScenario.node[141].veinsmobility 	startTime 	423.1
scalar RSUExampleScenario.node[141].veinsmobility 	totalTime 	350.1
scalar RSUExampleScenario.node[141].veinsmobility 	stopTime 	773.3
scalar RSUExampleScenario.node[141].veinsmobility 	minSpeed 	0.25342692268128
scalar RSUExampleScenario.node[141].veinsmobility 	maxSpeed 	13.999973733504
scalar RSUExampleScenario.node[141].veinsmobility 	totalDistance 	3409.6818935459
scalar RSUExampleScenario.node[141].veinsmobility 	totalCO2Emission 	771.04013992378
scalar RSUExampleScenario.node[142].veinsmobility 	startTime 	426.1
scalar RSUExampleScenario.node[142].veinsmobility 	totalTime 	350.8
scalar RSUExampleScenario.node[142].veinsmobility 	stopTime 	777
scalar RSUExampleScenario.node[142].veinsmobility 	minSpeed 	0.25072861151421
scalar RSUExampleScenario.node[142].veinsmobility 	maxSpeed 	13.999964659526
scalar RSUExampleScenario.node[142].veinsmobility 	totalDistance 	3414.2557109636
scalar RSUExampleScenario.node[142].veinsmobility 	totalCO2Emission 	772.6047611194
scalar RSUExampleScenario.node[143].veinsmobility 	startTime 	429.1
scalar RSUExampleScenario.node[143].veinsmobility 	totalTime 	351.5
scalar RSUExampleScenario.node[143].veinsmobility 	stopTime 	780.7
scalar RSUExampleScenario.node[143].veinsmobility 	minSpeed 	0.24879575860361
scalar RSUExampleScenario.node[143].veinsmobility 	maxSpeed 	13.99998018682
scalar RSUExampleScenario.node[143].veinsmobility 	totalDistance 	3410.1263811469
scalar RSUExampleScenario.node[143].veinsmobility 	totalCO2Emission 	776.17284524054
scalar RSUExampleScenario.node[144].veinsmobility 	startTime 	432.1
scalar RSUExampleScenario.node[144].veinsmobility 	totalTime 	352.2
scalar RSUExampleScenario.node[144].veinsmobility 	stopTime 	784.4
scalar RSUExampleScenario.node[144].veinsmobility 	minSpeed 	0.24818189994968
scalar RSUExampleScenario.node[144].veinsmobility 	maxSpeed 	13.999947654065
scalar RSUExampleScenario.node[144].veinsmobility 	totalDistance 	3413.8369442691
scalar RSUExampleScenario.node[144].veinsmobility 	totalCO2Emission 	773.71948114277
scalar RSUExampleScenario.node[145].veinsmobility 	startTime 	435.1
scalar RSUExampleScenario.node[145].veinsmobility 	totalTime 	353
scalar RSUExampleScenario.node[145].veinsmobility 	stopTime 	788.2
scalar RSUExampleScenario.node[145].veinsmobility 	minSpeed 	0.25025527822785
scalar RSUExampleScenario.node[145].veinsmobility 	maxSpeed 	13.999986364001
scalar RSUExampleScenario.node[145].veinsmobility 	totalDistance 	3409.9683830147
scalar RSUExampleScenario.node[145].veinsmobility 	totalCO2Emission 	777.29650122413
scalar RSUExampleScenario.node[146].veinsmobility 	startTime 	438.1
scalar RSUExampleScenario.node[146].veinsmobility 	totalTime 	353.7
scalar RSUExampleScenario.node[146].veinsmobility 	stopTime 	791.9
scalar RSUExampleScenario.node[146].veinsmobility 	minSpeed 	0.24852620170848
scalar RSUExampleScenario.node[146].veinsmobility 	maxSpeed 	13.999962424871
scalar RSUExampleScenario.node[146].veinsmobility 	totalDistance 	3414.0459608202
scalar RSUExampleScenario.node[146].veinsmobility 	totalCO2Emission 	778.04079367537
scalar RSUExampleScenario.node[147].veinsmobility 	startTime 	441.1
scalar RSUExampleScenario.node[147].veinsmobility 	totalTime 	354.4
scalar RSUExampleScenario.node[147].veinsmobility 	stopTime 	795.6
scalar RSUExampleScenario.node[147].veinsmobility 	minSpeed 	0.25853004119941
scalar RSUExampleScenario.node[147].veinsmobility 	maxSpeed 	13.999975337042
scalar RSUExampleScenario.node[147].veinsmobility 	totalDistance 	3409.5805065693
scalar RSUExampleScenario.node[147].veinsmobility 	totalCO2Emission 	773.95499885692
scalar RSUExampleScenario.node[148].veinsmobility 	startTime 	444.1
scalar RSUExampleScenario.node[148].veinsmobility 	totalTime 	355.1
scalar RSUExampleScenario.node[148].veinsmobility 	stopTime 	799.3
scalar RSUExampleScenario.node[148].veinsmobility 	minSpeed 	0.25658995655621
scalar RSUExampleScenario.node[148].veinsmobility 	maxSpeed 	13.999792036009
scalar RSUExampleScenario.node[148].veinsmobility 	totalDistance 	3414.0827112957
scalar RSUExampleScenario.node[148].veinsmobility 	totalCO2Emission 	775.25336872606
scalar RSUExampleScenario.node[149].veinsmobility 	startTime 	447.1
scalar RSUExampleScenario.node[149].veinsmobility 	totalTime 	355.8
scalar RSUExampleScenario.node[149].veinsmobility 	stopTime 	803
scalar RSUExampleScenario.node[149].veinsmobility 	minSpeed 	0.257334404764
scalar RSUExampleScenario.node[149].veinsmobility 	maxSpeed 	13.999974871611
scalar RSUExampleScenario.node[149].veinsmobility 	totalDistance 	3410.1511828036
scalar RSUExampleScenario.node[149].veinsmobility 	totalCO2Emission 	780.89763467983
scalar RSUExampleScenario.node[150].veinsmobility 	startTime 	450.1
scalar RSUExampleScenario.node[150].veinsmobility 	totalTime 	356.5
scalar RSUExampleScenario.node[150].veinsmobility 	stopTime 	806.7
scalar RSUExampleScenario.node[150].veinsmobility 	minSpeed 	0.25522680239799
scalar RSUExampleScenario.node[150].veinsmobility 	maxSpeed 	13.999984407055
scalar RSUExampleScenario.node[150].veinsmobility 	totalDistance 	3413.9342955688
scalar RSUExampleScenario.node[150].veinsmobility 	totalCO2Emission 	777.58780814664
scalar RSUExampleScenario.node[151].veinsmobility 	startTime 	453.1
scalar RSUExampleScenario.node[151].veinsmobility 	totalTime 	357.1
scalar RSUExampleScenario.node[151].veinsmobility 	stopTime 	810.3
scalar RSUExampleScenario.node[151].veinsmobility 	minSpeed 	0.24847653797665
scalar RSUExampleScenario.node[151].veinsmobility 	maxSpeed 	13.999819781913
scalar RSUExampleScenario.node[151].veinsmobility 	totalDistance 	3409.5509511834
scalar RSUExampleScenario.node[151].veinsmobility 	totalCO2Emission 	778.27859497101
scalar RSUExampleScenario.node[152].veinsmobility 	startTime 	456.1
scalar RSUExampleScenario.node[152].veinsmobility 	totalTime 	357.8
scalar RSUExampleScenario.node[152].veinsmobility 	stopTime 	814
scalar RSUExampleScenario.node[152].veinsmobility 	minSpeed 	0.25607576493942
scalar RSUExampleScenario.node[152].veinsmobility 	maxSpeed 	13.999967992424
scalar RSUExampleScenario.node[152].veinsmobility 	totalDistance 	3414.1322764373
[...]
scalar RSUExampleScenario.node[628].veinsmobility 	totalCO2Emission 	326.10109228708
scalar RSUExampleScenario.node[629].veinsmobility 	startTime 	1887.1
scalar RSUExampleScenario.node[629].veinsmobility 	totalTime 	112.8
scalar RSUExampleScenario.node[629].veinsmobility 	stopTime 	2000
scalar RSUExampleScenario.node[629].veinsmobility 	minSpeed 	0.2513133717787
scalar RSUExampleScenario.node[629].veinsmobility 	maxSpeed 	13.999786361307
scalar RSUExampleScenario.node[629].veinsmobility 	totalDistance 	1362.9283631555
scalar RSUExampleScenario.node[629].veinsmobility 	totalCO2Emission 	317.44161768453
scalar RSUExampleScenario.node[630].veinsmobility 	startTime 	1890.1
scalar RSUExampleScenario.node[630].veinsmobility 	totalTime 	109.8
scalar RSUExampleScenario.node[630].veinsmobility 	stopTime 	2000
scalar RSUExampleScenario.node[630].veinsmobility 	minSpeed 	0.24822551636538
scalar RSUExampleScenario.node[630].veinsmobility 	maxSpeed 	13.999883338474
scalar RSUExampleScenario.node[630].veinsmobility 	totalDistance 	1320.8928785234
scalar RSUExampleScenario.node[630].veinsmobility 	totalCO2Emission 	309.87510281806
scalar RSUExampleScenario.node[631].veinsmobility 	startTime 	1893.1
scalar RSUExampleScenario.node[631].veinsmobility 	totalTime 	106.8
scalar RSUExampleScenario.node[631].veinsmobility 	stopTime 	2000
scalar RSUExampleScenario.node[631].veinsmobility 	minSpeed 	0.25675175986229
scalar RSUExampleScenario.node[631].veinsmobility 	maxSpeed 	13.999746170873
scalar RSUExampleScenario.node[631].veinsmobility 	totalDistance 	1276.3142933459
scalar RSUExampleScenario.node[631].veinsmobility 	totalCO2Emission 	302.33975953316
scalar RSUExampleScenario.node[632].veinsmobility 	startTime 	1896.1
scalar RSUExampleScenario.node[632].veinsmobility 	totalTime 	103.8
scalar RSUExampleScenario.node[632].veinsmobility 	stopTime 	2000
scalar RSUExampleScenario.node[632].veinsmobility 	minSpeed 	0.25105743815191
scalar RSUExampleScenario.node[632].veinsmobility 	maxSpeed 	13.999961426693
scalar RSUExampleScenario.node[632].veinsmobility 	totalDistance 	1236.5847224987
scalar RSUExampleScenario.node[632].veinsmobility 	totalCO2Emission 	294.58184560161
scalar RSUExampleScenario.node[633].veinsmobility 	startTime 	1899.1
scalar RSUExampleScenario.node[633].veinsmobility 	totalTime 	100.8
scalar RSUExampleScenario.node[633].veinsmobility 	stopTime 	2000
scalar RSUExampleScenario.node[633].veinsmobility 	minSpeed 	0.25200220987317
scalar RSUExampleScenario.node[633].veinsmobility 	maxSpeed 	13.999677243077
scalar RSUExampleScenario.node[633].veinsmobility 	totalDistance 	1194.8352047908
scalar RSUExampleScenario.node[633].veinsmobility 	totalCO2Emission 	287.28484783658
scalar RSUExampleScenario.node[634].veinsmobility 	startTime 	1902.1
scalar RSUExampleScenario.node[634].veinsmobility 	totalTime 	97.8
scalar RSUExampleScenario.node[634].veinsmobility 	stopTime 	2000
scalar RSUExampleScenario.node[634].veinsmobility 	minSpeed 	0.25056569596869
scalar RSUExampleScenario.node[634].veinsmobility 	maxSpeed 	13.999827342916
scalar RSUExampleScenario.node[634].veinsmobility 	totalDistance 	1151.4451064502
scalar RSUExampleScenario.node[634].veinsmobility 	totalCO2Emission 	281.4196499507
scalar RSUExampleScenario.node[635].veinsmobility 	startTime 	1905.1
scalar RSUExampleScenario.node[635].veinsmobility 	totalTime 	94.8
scalar RSUExampleScenario.node[635].veinsmobility 	stopTime 	2000
scalar RSUExampleScenario.node[635].veinsmobility 	minSpeed 	0.24957374802628
scalar RSUExampleScenario.node[635].veinsmobility 	maxSpeed 	13.999776291088
scalar RSUExampleScenario.node[635].veinsmobility 	totalDistance 	1112.8056835862
scalar RSUExampleScenario.node[635].veinsmobility 	totalCO2Emission 	275.16703664583
scalar RSUExampleScenario.node[636].veinsmobility 	startTime 	1908.1
scalar RSUExampleScenario.node[636].veinsmobility 	totalTime 	91.8
scalar RSUExampleScenario.node[636].veinsmobility 	stopTime 	2000
scalar RSUExampleScenario.node[636].veinsmobility 	minSpeed 	0.25743958690623
scalar RSUExampleScenario.node[636].veinsmobility 	maxSpeed 	13.999871917274
scalar RSUExampleScenario.node[636].veinsmobility 	totalDistance 	1068.4467373352
scalar RSUExampleScenario.node[636].veinsmobility 	totalCO2Emission 	268.95432024706
scalar RSUExampleScenario.node[637].veinsmobility 	startTime 	1911.1
scalar RSUExampleScenario.node[637].veinsmobility 	totalTime 	88.8
scalar RSUExampleScenario.node[637].veinsmobility 	stopTime 	2000
scalar RSUExampleScenario.node[637].veinsmobility 	minSpeed 	0.2536331472469
scalar RSUExampleScenario.node[637].veinsmobility 	maxSpeed 	13.999805207485
scalar RSUExampleScenario.node[637].veinsmobility 	totalDistance 	1027.9130034181
scalar RSUExampleScenario.node[637].veinsmobility 	totalCO2Emission 	261.19225808807
scalar RSUExampleScenario.node[638].veinsmobility 	startTime 	1914.1
scalar RSUExampleScenario.node[638].veinsmobility 	totalTime 	85.8
scalar RSUExampleScenario.node[638].veinsmobility 	stopTime 	2000
scalar RSUExampleScenario.node[638].veinsmobility 	minSpeed 	0.2562069174021
scalar RSUExampleScenario.node[638].veinsmobility 	maxSpeed 	13.999984362409
scalar RSUExampleScenario.node[638].veinsmobility 	totalDistance 	985.3338565666
scalar RSUExampleScenario.node[638].veinsmobility 	totalCO2Emission 	252.97191401203
scalar RSUExampleScenario.node[639].veinsmobility 	startTime 	1917.1
scalar RSUExampleScenario.node[639].veinsmobility 	totalTime 	82.8
scalar RSUExampleScenario.node[639].veinsmobility 	stopTime 	2000
scalar RSUExampleScenario.node[639].veinsmobility 	minSpeed 	0.24801515218988
scalar RSUExampleScenario.node[639].veinsmobility 	maxSpeed 	13.998673022538
scalar RSUExampleScenario.node[639].veinsmobility 	totalDistance 	952.5803667756
scalar RSUExampleScenario.node[639].veinsmobility 	totalCO2Emission 	232.94146251511
scalar RSUExampleScenario.node[640].veinsmobility 	startTime 	1920.1
scalar RSUExampleScenario.node[640].veinsmobility 	totalTime 	79.8
scalar RSUExampleScenario.node[640].veinsmobility 	stopTime 	2000
scalar RSUExampleScenario.node[640].veinsmobility 	minSpeed 	0.25832381838933
scalar RSUExampleScenario.node[640].veinsmobility 	maxSpeed 	13.99983918139
scalar RSUExampleScenario.node[640].veinsmobility 	totalDistance 	936.35356845908
scalar RSUExampleScenario.node[640].veinsmobility 	totalCO2Emission 	222.01732642475
scalar RSUExampleScenario.node[641].veinsmobility 	startTime 	1923.1
scalar RSUExampleScenario.node[641].veinsmobility 	totalTime 	76.8
scalar RSUExampleScenario.node[641].veinsmobility 	stopTime 	2000
scalar RSUExampleScenario.node[641].veinsmobility 	minSpeed 	0.24908384976257
scalar RSUExampleScenario.node[641].veinsmobility 	maxSpeed 	13.999805074427
scalar RSUExampleScenario.node[641].veinsmobility 	totalDistance 	912.15386576911
scalar RSUExampleScenario.node[641].veinsmobility 	totalCO2Emission 	216.67985710211
scalar RSUExampleScenario.node[642].veinsmobility 	startTime 	1926.1
scalar RSUExampleScenario.node[642].veinsmobility 	totalTime 	73.8
scalar RSUExampleScenario.node[642].veinsmobility 	stopTime 	2000
scalar RSUExampleScenario.node[642].veinsmobility 	minSpeed 	0.25262383303675
scalar RSUExampleScenario.node[642].veinsmobility 	maxSpeed 	13.999265395612
scalar RSUExampleScenario.node[642].veinsmobility 	totalDistance 	871.21581486875
scalar RSUExampleScenario.node[642].veinsmobility 	totalCO2Emission 	213.29018731205
scalar RSUExampleScenario.node[643].veinsmobility 	startTime 	1929.1
scalar RSUExampleScenario.node[643].veinsmobility 	totalTime 	70.8
scalar RSUExampleScenario.node[643].veinsmobility 	stopTime 	2000
scalar RSUExampleScenario.node[643].veinsmobility 	minSpeed 	0.25475677001383
scalar RSUExampleScenario.node[643].veinsmobility 	maxSpeed 	13.999642178828
scalar RSUExampleScenario.node[643].veinsmobility 	totalDistance 	832.58152697978
scalar RSUExampleScenario.node[643].veinsmobility 	totalCO2Emission 	206.22621073652
scalar RSUExampleScenario.node[644].veinsmobility 	startTime 	1932.1
scalar RSUExampleScenario.node[644].veinsmobility 	totalTime 	67.8
scalar RSUExampleScenario.node[644].veinsmobility 	stopTime 	2000
scalar RSUExampleScenario.node[644].veinsmobility 	minSpeed 	0.24705378955766
scalar RSUExampleScenario.node[644].veinsmobility 	maxSpeed 	13.999885848658
scalar RSUExampleScenario.node[644].veinsmobility 	totalDistance 	789.28611005457
scalar RSUExampleScenario.node[644].veinsmobility 	totalCO2Emission 	198.19293509751
scalar RSUExampleScenario.node[645].veinsmobility 	startTime 	1935.1
scalar RSUExampleScenario.node[645].veinsmobility 	totalTime 	64.8
scalar RSUExampleScenario.node[645].veinsmobility 	stopTime 	2000
scalar RSUExampleScenario.node[645].veinsmobility 	minSpeed 	0.25981520937406
scalar RSUExampleScenario.node[645].veinsmobility 	maxSpeed 	13.999528831344
scalar RSUExampleScenario.node[645].veinsmobility 	totalDistance 	746.18803359811
scalar RSUExampleScenario.node[645].veinsmobility 	totalCO2Emission 	191.55691689462
scalar RSUExampleScenario.node[646].veinsmobility 	startTime 	1938.1
scalar RSUExampleScenario.node[646].veinsmobility 	totalTime 	61.8
scalar RSUExampleScenario.node[646].veinsmobility 	stopTime 	2000
scalar RSUExampleScenario.node[646].veinsmobility 	minSpeed 	0.25035593131417
scalar RSUExampleScenario.node[646].veinsmobility 	maxSpeed 	13.999840462089
scalar RSUExampleScenario.node[646].veinsmobility 	totalDistance 	706.3175769013
scalar RSUExampleScenario.node[646].veinsmobility 	totalCO2Emission 	186.29696400717
scalar RSUExampleScenario.node[647].veinsmobility 	startTime 	1941.1
scalar RSUExampleScenario.node[647].veinsmobility 	totalTime 	58.8
scalar RSUExampleScenario.node[647].veinsmobility 	stopTime 	2000
scalar RSUExampleScenario.node[647].veinsmobility 	minSpeed 	0.25661199787748
scalar RSUExampleScenario.node[647].veinsmobility 	maxSpeed 	13.999794784554
scalar RSUExampleScenario.node[647].veinsmobility 	totalDistance 	661.81203665559
scalar RSUExampleScenario.node[647].veinsmobility 	totalCO2Emission 	177.82290633275
scalar RSUExampleScenario.node[648].veinsmobility 	startTime 	1944.1
scalar RSUExampleScenario.node[648].veinsmobility 	totalTime 	55.8
scalar RSUExampleScenario.node[648].veinsmobility 	stopTime 	2000
scalar RSUExampleScenario.node[648].veinsmobility 	minSpeed 	0.24801357739512
scalar RSUExampleScenario.node[648].veinsmobility 	maxSpeed 	13.999979755229
scalar RSUExampleScenario.node[648].veinsmobility 	totalDistance 	621.00685062423
scalar RSUExampleScenario.node[648].veinsmobility 	totalCO2Emission 	171.65818673745
scalar RSUExampleScenario.node[649].veinsmobility 	startTime 	1947.1
scalar RSUExampleScenario.node[649].veinsmobility 	totalTime 	52.8
scalar RSUExampleScenario.node[649].veinsmobility 	stopTime 	2000
scalar RSUExampleScenario.node[649].veinsmobility 	minSpeed 	0.25726501276903
scalar RSUExampleScenario.node[649].veinsmobility 	maxSpeed 	13.99974683698
scalar RSUExampleScenario.node[649].veinsmobility 	totalDistance 	578.22390912636
scalar RSUExampleScenario.node[649].veinsmobility 	totalCO2Emission 	164.92406688299
scalar RSUExampleScenario.node[650].veinsmobility 	startTime 	1950.1
scalar RSUExampleScenario.node[650].veinsmobility 	totalTime 	49.8
scalar RSUExampleScenario.node[650].veinsmobility 	stopTime 	2000
scalar RSUExampleScenario.node[650].veinsmobility 	minSpeed 	0.25388346163766
scalar RSUExampleScenario.node[650].veinsmobility 	maxSpeed 	13.999874008277
scalar RSUExampleScenario.node[650].veinsmobility 	totalDistance 	535.62134278957
scalar RSUExampleScenario.node[650].veinsmobility 	totalCO2Emission 	158.1997249358
scalar RSUExampleScenario.node[651].veinsmobility 	startTime 	1953.1
scalar RSUExampleScenario.node[651].veinsmobility 	totalTime 	46.8
scalar RSUExampleScenario.node[651].veinsmobility 	stopTime 	2000
scalar RSUExampleScenario.node[651].veinsmobility 	minSpeed 	0.25002117629233
scalar RSUExampleScenario.node[651].veinsmobility 	maxSpeed 	13.999879901453
scalar RSUExampleScenario.node[651].veinsmobility 	totalDistance 	496.48108275423
scalar RSUExampleScenario.node[651].veinsmobility 	totalCO2Emission 	151.39000510645
scalar RSUExampleScenario.node[652].veinsmobility 	startTime 	1956.1
scalar RSUExampleScenario.node[652].veinsmobility 	totalTime 	43.8
scalar RSUExampleScenario.node[652].veinsmobility 	stopTime 	2000
scalar RSUExampleScenario.node[652].veinsmobility 	minSpeed 	0.24915451982315
scalar RSUExampleScenario.node[652].veinsmobility 	maxSpeed 	13.999329164594
scalar RSUExampleScenario.node[652].veinsmobility 	totalDistance 	455.80297585008
scalar RSUExampleScenario.node[652].veinsmobility 	totalCO2Emission 	144.48967705143
scalar RSUExampleScenario.node[653].veinsmobility 	startTime 	1959.1
scalar RSUExampleScenario.node[653].veinsmobility 	totalTime 	40.8
scalar RSUExampleScenario.node[653].veinsmobility 	stopTime 	2000
scalar RSUExampleScenario.node[653].veinsmobility 	minSpeed 	0.25494369718106
scalar RSUExampleScenario.node[653].veinsmobility 	maxSpeed 	13.997043153183
scalar RSUExampleScenario.node[653].veinsmobility 	totalDistance 	414.64775762212
scalar RSUExampleScenario.node[653].veinsmobility 	totalCO2Emission 	137.1135546512
scalar RSUExampleScenario.node[654].veinsmobility 	startTime 	1962.1
scalar RSUExampleScenario.node[654].veinsmobility 	totalTime 	37.8
scalar RSUExampleScenario.node[654].veinsmobility 	stopTime 	2000
scalar RSUExampleScenario.node[654].veinsmobility 	minSpeed 	0.24922823309642
scalar RSUExampleScenario.node[654].veinsmobility 	maxSpeed 	13.998434055839
scalar RSUExampleScenario.node[654].veinsmobility 	totalDistance 	371.90442694698
scalar RSUExampleScenario.node[654].veinsmobility 	totalCO2Emission 	129.51145202161
scalar RSUExampleScenario.node[655].veinsmobility 	startTime 	1965.1
scalar RSUExampleScenario.node[655].veinsmobility 	totalTime 	34.8
scalar RSUExampleScenario.node[655].veinsmobility 	stopTime 	2000
scalar RSUExampleScenario.node[655].veinsmobility 	minSpeed 	0.25729468503944
scalar RSUExampleScenario.node[655].veinsmobility 	maxSpeed 	13.996944378309
scalar RSUExampleScenario.node[655].veinsmobility 	totalDistance 	328.91408710317
scalar RSUExampleScenario.node[655].veinsmobility 	totalCO2Emission 	122.64470357957
scalar RSUExampleScenario.node[656].veinsmobility 	startTime 	1968.1
scalar RSUExampleScenario.node[656].veinsmobility 	totalTime 	31.8
scalar RSUExampleScenario.node[656].veinsmobility 	stopTime 	2000
scalar RSUExampleScenario.node[656].veinsmobility 	minSpeed 	0.24797387264413
scalar RSUExampleScenario.node[656].veinsmobility 	maxSpeed 	13.995586187202
scalar RSUExampleScenario.node[656].veinsmobility 	totalDistance 	287.9598008615
scalar RSUExampleScenario.node[656].veinsmobility 	totalCO2Emission 	115.14240339554
scalar RSUExampleScenario.node[657].veinsmobility 	startTime 	1971.1
scalar RSUExampleScenario.node[657].veinsmobility 	totalTime 	28.8
scalar RSUExampleScenario.node[657].veinsmobility 	stopTime 	2000
scalar RSUExampleScenario.node[657].veinsmobility 	minSpeed 	0.2563917438169
scalar RSUExampleScenario.node[657].veinsmobility 	maxSpeed 	13.888270975484
scalar RSUExampleScenario.node[657].veinsmobility 	totalDistance 	249.45207999714
scalar RSUExampleScenario.node[657].veinsmobility 	totalCO2Emission 	99.368336457006
scalar RSUExampleScenario.node[658].veinsmobility 	startTime 	1974.1
scalar RSUExampleScenario.node[658].veinsmobility 	totalTime 	25.8
scalar RSUExampleScenario.node[658].veinsmobility 	stopTime 	2000
scalar RSUExampleScenario.node[658].veinsmobility 	minSpeed 	0.25982768644532
scalar RSUExampleScenario.node[658].veinsmobility 	maxSpeed 	13.873111150679
scalar RSUExampleScenario.node[658].veinsmobility 	totalDistance 	226.04416666904
scalar RSUExampleScenario.node[658].veinsmobility 	totalCO2Emission 	83.324364230605
scalar RSUExampleScenario.node[659].veinsmobility 	startTime 	1977.1
scalar RSUExampleScenario.node[659].veinsmobility 	totalTime 	22.8
scalar RSUExampleScenario.node[659].veinsmobility 	stopTime 	2000
scalar RSUExampleScenario.node[659].veinsmobility 	minSpeed 	0.25898009089078
scalar RSUExampleScenario.node[659].veinsmobility 	maxSpeed 	13.872773211214
scalar RSUExampleScenario.node[659].veinsmobility 	totalDistance 	209.11403971076
scalar RSUExampleScenario.node[659].veinsmobility 	totalCO2Emission 	78.26637807772
scalar RSUExampleScenario.node[660].veinsmobility 	startTime 	1980.1
scalar RSUExampleScenario.node[660].veinsmobility 	totalTime 	19.8
scalar RSUExampleScenario.node[660].veinsmobility 	stopTime 	2000
scalar RSUExampleScenario.node[660].veinsmobility 	minSpeed 	0.251708791652
scalar RSUExampleScenario.node[660].veinsmobility 	maxSpeed 	13.87991802972
scalar RSUExampleScenario.node[660].veinsmobility 	totalDistance 	175.62279577677
scalar RSUExampleScenario.node[660].veinsmobility 	totalCO2Emission 	75.11449487736
scalar RSUExampleScenario.node[661].veinsmobility 	startTime 	1983.1
scalar RSUExampleScenario.node[661].veinsmobility 	totalTime 	16.8
scalar RSUExampleScenario.node[661].veinsmobility 	stopTime 	2000
scalar RSUExampleScenario.node[661].veinsmobility 	minSpeed 	0.25246337307221
scalar RSUExampleScenario.node[661].veinsmobility 	maxSpeed 	13.860753453413
scalar RSUExampleScenario.node[661].veinsmobility 	totalDistance 	136.6412713868
scalar RSUExampleScenario.node[661].veinsmobility 	totalCO2Emission 	57.233176113479
scalar RSUExampleScenario.node[662].veinsmobility 	startTime 	1986.1
scalar RSUExampleScenario.node[662].veinsmobility 	totalTime 	13.8
scalar RSUExampleScenario.node[662].veinsmobility 	stopTime 	2000
scalar RSUExampleScenario.node[662].veinsmobility 	minSpeed 	0.25861734798457
scalar RSUExampleScenario.node[662].veinsmobility 	maxSpeed 	13.882989965128
scalar RSUExampleScenario.node[662].veinsmobility 	totalDistance 	116.77576401603
scalar RSUExampleScenario.node[662].veinsmobility 	totalCO2Emission 	42.795828588976
scalar RSUExampleScenario.node[663].veinsmobility 	startTime 	1989.1
scalar RSUExampleScenario.node[663].veinsmobility 	totalTime 	10.8
scalar RSUExampleScenario.node[663].veinsmobility 	stopTime 	2000
scalar RSUExampleScenario.node[663].veinsmobility 	minSpeed 	0.25570046690688
scalar RSUExampleScenario.node[663].veinsmobility 	maxSpeed 	13.888010301343
scalar RSUExampleScenario.node[663].veinsmobility 	totalDistance 	97.815652995392
scalar RSUExampleScenario.node[663].veinsmobility 	totalCO2Emission 	39.535831323718
scalar RSUExampleScenario.node[664].veinsmobility 	startTime 	1992.1
scalar RSUExampleScenario.node[664].veinsmobility 	totalTime 	7.8
scalar RSUExampleScenario.node[664].veinsmobility 	stopTime 	2000
scalar RSUExampleScenario.node[664].veinsmobility 	minSpeed 	0.25917443643813
scalar RSUExampleScenario.node[664].veinsmobility 	maxSpeed 	13.873952876215
scalar RSUExampleScenario.node[664].veinsmobility 	totalDistance 	61.876087178087
scalar RSUExampleScenario.node[664].veinsmobility 	totalCO2Emission 	35.801588729183
scalar RSUExampleScenario.node[665].veinsmobility 	startTime 	1995.1
scalar RSUExampleScenario.node[665].veinsmobility 	totalTime 	4.8
scalar RSUExampleScenario.node[665].veinsmobility 	stopTime 	2000
scalar RSUExampleScenario.node[665].veinsmobility 	minSpeed 	0.24957842486561
scalar RSUExampleScenario.node[665].veinsmobility 	maxSpeed 	9.8092830230174
scalar RSUExampleScenario.node[665].veinsmobility 	totalDistance 	24.726312172839
scalar RSUExampleScenario.node[665].veinsmobility 	totalCO2Emission 	18.350784072682
scalar RSUExampleScenario.node[666].veinsmobility 	startTime 	1998.1
scalar RSUExampleScenario.node[666].veinsmobility 	totalTime 	1.8
scalar RSUExampleScenario.node[666].veinsmobility 	stopTime 	2000
scalar RSUExampleScenario.node[666].veinsmobility 	minSpeed 	0.25807909010327
scalar RSUExampleScenario.node[666].veinsmobility 	maxSpeed 	3.7946212683791
scalar RSUExampleScenario.node[666].veinsmobility 	totalDistance 	3.8528308969297
scalar RSUExampleScenario.node[666].veinsmobility 	totalCO2Emission 	3.8926019331786
