version 2
run statistic3-582-20150325-03:00:59-16428
attr c 14
attr configname statistic3
attr datetime 20150325-03:00:59
attr experiment statistic3
attr inifile omnetpp.ini
attr iterationvars "$p=1/10, $c=14"
attr iterationvars2 "$p=1/10, $c=14, $repetition=82"
attr measurement "$p=1/10, $c=14"
attr network RSUExampleScenario
attr p 1/10
attr processid 16428
attr repetition 82
attr replication #82
attr resultdir results
attr runnumber 582
attr seedset 582

scalar . 	c 	14
scalar RSUExampleScenario.rsu[0].appl 	NumberofCH 	18
scalar RSUExampleScenario.rsu[0].appl 	NumberofON 	82
scalar RSUExampleScenario.rsu[0].appl 	NumberofFN 	0
scalar RSUExampleScenario.rsu[0].appl 	meanClusterNodes 	4.5555555555556
scalar RSUExampleScenario.rsu[0].appl 	varClusterNodes 	2.7125679146075
scalar RSUExampleScenario.rsu[0].appl 	sumCHutility 	663.15140342834
scalar RSUExampleScenario.rsu[0].appl 	meanCHutility 	36.841744634908
scalar RSUExampleScenario.rsu[0].appl 	varCHutility 	9.0510928441617
scalar RSUExampleScenario.rsu[0].appl 	sumDiffCHutility 	-49.977829502453
scalar RSUExampleScenario.rsu[0].appl 	meanDiffCHutility 	-2.7765460834696
scalar RSUExampleScenario.rsu[0].appl 	varDiffCHutility 	8.9104651562325
scalar RSUExampleScenario.rsu[0].appl 	expectedCHutility 	613.17357392588
scalar RSUExampleScenario.rsu[0].appl 	meanExpectedCHutility 	34.065198551438
scalar RSUExampleScenario.rsu[0].appl 	varExpectedCHutility 	0.70552647832293
scalar RSUExampleScenario.node[0].veinsmobility 	startTime 	0.1
scalar RSUExampleScenario.node[0].veinsmobility 	totalTime 	349.9
scalar RSUExampleScenario.node[0].veinsmobility 	stopTime 	350
scalar RSUExampleScenario.node[0].veinsmobility 	minSpeed 	0
scalar RSUExampleScenario.node[0].veinsmobility 	maxSpeed 	13.999967170588
scalar RSUExampleScenario.node[0].veinsmobility 	totalDistance 	3129.3705584545
scalar RSUExampleScenario.node[0].veinsmobility 	totalCO2Emission 	740.02757173685
scalar RSUExampleScenario.node[1].veinsmobility 	startTime 	2.5
scalar RSUExampleScenario.node[1].veinsmobility 	totalTime 	347.5
scalar RSUExampleScenario.node[1].veinsmobility 	stopTime 	350
scalar RSUExampleScenario.node[1].veinsmobility 	minSpeed 	0
scalar RSUExampleScenario.node[1].veinsmobility 	maxSpeed 	13.999783122905
scalar RSUExampleScenario.node[1].veinsmobility 	totalDistance 	3080.1672682669
scalar RSUExampleScenario.node[1].veinsmobility 	totalCO2Emission 	729.47213998648
scalar RSUExampleScenario.node[10].veinsmobility 	startTime 	24.2
scalar RSUExampleScenario.node[10].veinsmobility 	totalTime 	325.8
scalar RSUExampleScenario.node[10].veinsmobility 	stopTime 	350
scalar RSUExampleScenario.node[10].veinsmobility 	minSpeed 	0
scalar RSUExampleScenario.node[10].veinsmobility 	maxSpeed 	13.999985450937
scalar RSUExampleScenario.node[10].veinsmobility 	totalDistance 	2789.9461293261
scalar RSUExampleScenario.node[10].veinsmobility 	totalCO2Emission 	663.07743034777
scalar RSUExampleScenario.node[11].veinsmobility 	startTime 	26.6
scalar RSUExampleScenario.node[11].veinsmobility 	totalTime 	323.4
scalar RSUExampleScenario.node[11].veinsmobility 	stopTime 	350
scalar RSUExampleScenario.node[11].veinsmobility 	minSpeed 	0
scalar RSUExampleScenario.node[11].veinsmobility 	maxSpeed 	13.999933988403
scalar RSUExampleScenario.node[11].veinsmobility 	totalDistance 	2757.328977735
scalar RSUExampleScenario.node[11].veinsmobility 	totalCO2Emission 	657.13132472711
scalar RSUExampleScenario.node[12].veinsmobility 	startTime 	29
scalar RSUExampleScenario.node[12].veinsmobility 	totalTime 	321
scalar RSUExampleScenario.node[12].veinsmobility 	stopTime 	350
scalar RSUExampleScenario.node[12].veinsmobility 	minSpeed 	0
scalar RSUExampleScenario.node[12].veinsmobility 	maxSpeed 	13.999805062714
scalar RSUExampleScenario.node[12].veinsmobility 	totalDistance 	2719.3057630578
scalar RSUExampleScenario.node[12].veinsmobility 	totalCO2Emission 	653.58264899881
scalar RSUExampleScenario.node[13].veinsmobility 	startTime 	31.4
scalar RSUExampleScenario.node[13].veinsmobility 	totalTime 	318.6
scalar RSUExampleScenario.node[13].veinsmobility 	stopTime 	350
scalar RSUExampleScenario.node[13].veinsmobility 	minSpeed 	0
scalar RSUExampleScenario.node[13].veinsmobility 	maxSpeed 	13.999991356947
scalar RSUExampleScenario.node[13].veinsmobility 	totalDistance 	2685.5992235637
scalar RSUExampleScenario.node[13].veinsmobility 	totalCO2Emission 	643.99908416313
scalar RSUExampleScenario.node[14].veinsmobility 	startTime 	33.8
scalar RSUExampleScenario.node[14].veinsmobility 	totalTime 	316.2
scalar RSUExampleScenario.node[14].veinsmobility 	stopTime 	350
scalar RSUExampleScenario.node[14].veinsmobility 	minSpeed 	0
scalar RSUExampleScenario.node[14].veinsmobility 	maxSpeed 	13.999665841339
scalar RSUExampleScenario.node[14].veinsmobility 	totalDistance 	2648.0725413037
scalar RSUExampleScenario.node[14].veinsmobility 	totalCO2Emission 	636.81436870824
scalar RSUExampleScenario.node[15].veinsmobility 	startTime 	36.2
scalar RSUExampleScenario.node[15].veinsmobility 	totalTime 	313.8
scalar RSUExampleScenario.node[15].veinsmobility 	stopTime 	350
scalar RSUExampleScenario.node[15].veinsmobility 	minSpeed 	0
scalar RSUExampleScenario.node[15].veinsmobility 	maxSpeed 	13.999897114644
scalar RSUExampleScenario.node[15].veinsmobility 	totalDistance 	2619.2740807306
scalar RSUExampleScenario.node[15].veinsmobility 	totalCO2Emission 	632.13253071186
scalar RSUExampleScenario.node[16].veinsmobility 	startTime 	38.6
scalar RSUExampleScenario.node[16].veinsmobility 	totalTime 	311.4
scalar RSUExampleScenario.node[16].veinsmobility 	stopTime 	350
scalar RSUExampleScenario.node[16].veinsmobility 	minSpeed 	0
scalar RSUExampleScenario.node[16].veinsmobility 	maxSpeed 	13.999912663337
scalar RSUExampleScenario.node[16].veinsmobility 	totalDistance 	2579.5570635448
scalar RSUExampleScenario.node[16].veinsmobility 	totalCO2Emission 	625.33830168861
scalar RSUExampleScenario.node[17].veinsmobility 	startTime 	41
scalar RSUExampleScenario.node[17].veinsmobility 	totalTime 	309
scalar RSUExampleScenario.node[17].veinsmobility 	stopTime 	350
scalar RSUExampleScenario.node[17].veinsmobility 	minSpeed 	0
scalar RSUExampleScenario.node[17].veinsmobility 	maxSpeed 	13.99999055766
scalar RSUExampleScenario.node[17].veinsmobility 	totalDistance 	2543.8141102232
scalar RSUExampleScenario.node[17].veinsmobility 	totalCO2Emission 	620.08119933946
scalar RSUExampleScenario.node[18].veinsmobility 	startTime 	43.4
scalar RSUExampleScenario.node[18].veinsmobility 	totalTime 	306.6
scalar RSUExampleScenario.node[18].veinsmobility 	stopTime 	350
scalar RSUExampleScenario.node[18].veinsmobility 	minSpeed 	0
scalar RSUExampleScenario.node[18].veinsmobility 	maxSpeed 	13.999597062462
scalar RSUExampleScenario.node[18].veinsmobility 	totalDistance 	2504.8925739277
scalar RSUExampleScenario.node[18].veinsmobility 	totalCO2Emission 	613.47307883648
scalar RSUExampleScenario.node[19].veinsmobility 	startTime 	45.8
scalar RSUExampleScenario.node[19].veinsmobility 	totalTime 	304.2
scalar RSUExampleScenario.node[19].veinsmobility 	stopTime 	350
scalar RSUExampleScenario.node[19].veinsmobility 	minSpeed 	0
scalar RSUExampleScenario.node[19].veinsmobility 	maxSpeed 	13.999974407754
scalar RSUExampleScenario.node[19].veinsmobility 	totalDistance 	2475.8548372656
scalar RSUExampleScenario.node[19].veinsmobility 	totalCO2Emission 	609.15492092145
scalar RSUExampleScenario.node[2].veinsmobility 	startTime 	4.9
scalar RSUExampleScenario.node[2].veinsmobility 	totalTime 	345.1
scalar RSUExampleScenario.node[2].veinsmobility 	stopTime 	350
scalar RSUExampleScenario.node[2].veinsmobility 	minSpeed 	0
scalar RSUExampleScenario.node[2].veinsmobility 	maxSpeed 	13.999992461395
scalar RSUExampleScenario.node[2].veinsmobility 	totalDistance 	3034.4072939786
scalar RSUExampleScenario.node[2].veinsmobility 	totalCO2Emission 	726.52336046569
scalar RSUExampleScenario.node[20].veinsmobility 	startTime 	48.3
scalar RSUExampleScenario.node[20].veinsmobility 	totalTime 	301.7
scalar RSUExampleScenario.node[20].veinsmobility 	stopTime 	350
scalar RSUExampleScenario.node[20].veinsmobility 	minSpeed 	0
scalar RSUExampleScenario.node[20].veinsmobility 	maxSpeed 	13.999990995335
scalar RSUExampleScenario.node[20].veinsmobility 	totalDistance 	2436.264520692
scalar RSUExampleScenario.node[20].veinsmobility 	totalCO2Emission 	602.94154248225
scalar RSUExampleScenario.node[21].veinsmobility 	startTime 	50.7
scalar RSUExampleScenario.node[21].veinsmobility 	totalTime 	299.3
scalar RSUExampleScenario.node[21].veinsmobility 	stopTime 	350
scalar RSUExampleScenario.node[21].veinsmobility 	minSpeed 	0
scalar RSUExampleScenario.node[21].veinsmobility 	maxSpeed 	13.999993332084
scalar RSUExampleScenario.node[21].veinsmobility 	totalDistance 	2408.8055665209
scalar RSUExampleScenario.node[21].veinsmobility 	totalCO2Emission 	598.8114307389
scalar RSUExampleScenario.node[22].veinsmobility 	startTime 	53.1
scalar RSUExampleScenario.node[22].veinsmobility 	totalTime 	296.9
scalar RSUExampleScenario.node[22].veinsmobility 	stopTime 	350
scalar RSUExampleScenario.node[22].veinsmobility 	minSpeed 	0
scalar RSUExampleScenario.node[22].veinsmobility 	maxSpeed 	13.999931850333
scalar RSUExampleScenario.node[22].veinsmobility 	totalDistance 	2371.121815451
scalar RSUExampleScenario.node[22].veinsmobility 	totalCO2Emission 	594.52644013961
scalar RSUExampleScenario.node[23].veinsmobility 	startTime 	55.5
scalar RSUExampleScenario.node[23].veinsmobility 	totalTime 	294.5
scalar RSUExampleScenario.node[23].veinsmobility 	stopTime 	350
scalar RSUExampleScenario.node[23].veinsmobility 	minSpeed 	0
scalar RSUExampleScenario.node[23].veinsmobility 	maxSpeed 	13.999984046896
scalar RSUExampleScenario.node[23].veinsmobility 	totalDistance 	2340.018815302
scalar RSUExampleScenario.node[23].veinsmobility 	totalCO2Emission 	588.13621910076
scalar RSUExampleScenario.node[24].veinsmobility 	startTime 	57.9
scalar RSUExampleScenario.node[24].veinsmobility 	totalTime 	292.1
scalar RSUExampleScenario.node[24].veinsmobility 	stopTime 	350
scalar RSUExampleScenario.node[24].veinsmobility 	minSpeed 	0
scalar RSUExampleScenario.node[24].veinsmobility 	maxSpeed 	13.999961551519
scalar RSUExampleScenario.node[24].veinsmobility 	totalDistance 	2302.4849042484
scalar RSUExampleScenario.node[24].veinsmobility 	totalCO2Emission 	581.9962236824
scalar RSUExampleScenario.node[25].veinsmobility 	startTime 	60.3
scalar RSUExampleScenario.node[25].veinsmobility 	totalTime 	289.7
scalar RSUExampleScenario.node[25].veinsmobility 	stopTime 	350
scalar RSUExampleScenario.node[25].veinsmobility 	minSpeed 	0
scalar RSUExampleScenario.node[25].veinsmobility 	maxSpeed 	13.999965708826
scalar RSUExampleScenario.node[25].veinsmobility 	totalDistance 	2273.3037203134
scalar RSUExampleScenario.node[25].veinsmobility 	totalCO2Emission 	577.41978159593
scalar RSUExampleScenario.node[26].veinsmobility 	startTime 	62.7
scalar RSUExampleScenario.node[26].veinsmobility 	totalTime 	287.3
scalar RSUExampleScenario.node[26].veinsmobility 	stopTime 	350
scalar RSUExampleScenario.node[26].veinsmobility 	minSpeed 	0
scalar RSUExampleScenario.node[26].veinsmobility 	maxSpeed 	13.999842263791
scalar RSUExampleScenario.node[26].veinsmobility 	totalDistance 	2234.0160828511
scalar RSUExampleScenario.node[26].veinsmobility 	totalCO2Emission 	568.55577579028
scalar RSUExampleScenario.node[27].veinsmobility 	startTime 	65.1
scalar RSUExampleScenario.node[27].veinsmobility 	totalTime 	284.9
scalar RSUExampleScenario.node[27].veinsmobility 	stopTime 	350
scalar RSUExampleScenario.node[27].veinsmobility 	minSpeed 	0
scalar RSUExampleScenario.node[27].veinsmobility 	maxSpeed 	13.999961387587
scalar RSUExampleScenario.node[27].veinsmobility 	totalDistance 	2203.7387333878
scalar RSUExampleScenario.node[27].veinsmobility 	totalCO2Emission 	560.66583197724
scalar RSUExampleScenario.node[28].veinsmobility 	startTime 	67.5
scalar RSUExampleScenario.node[28].veinsmobility 	totalTime 	282.5
scalar RSUExampleScenario.node[28].veinsmobility 	stopTime 	350
scalar RSUExampleScenario.node[28].veinsmobility 	minSpeed 	0
scalar RSUExampleScenario.node[28].veinsmobility 	maxSpeed 	13.999947942125
scalar RSUExampleScenario.node[28].veinsmobility 	totalDistance 	2167.3379024369
scalar RSUExampleScenario.node[28].veinsmobility 	totalCO2Emission 	558.34670122434
scalar RSUExampleScenario.node[29].veinsmobility 	startTime 	69.9
scalar RSUExampleScenario.node[29].veinsmobility 	totalTime 	280.1
scalar RSUExampleScenario.node[29].veinsmobility 	stopTime 	350
scalar RSUExampleScenario.node[29].veinsmobility 	minSpeed 	0
scalar RSUExampleScenario.node[29].veinsmobility 	maxSpeed 	13.999922641269
scalar RSUExampleScenario.node[29].veinsmobility 	totalDistance 	2136.4012553234
scalar RSUExampleScenario.node[29].veinsmobility 	totalCO2Emission 	551.63902447414
scalar RSUExampleScenario.node[3].veinsmobility 	startTime 	7.3
scalar RSUExampleScenario.node[3].veinsmobility 	totalTime 	342.7
scalar RSUExampleScenario.node[3].veinsmobility 	stopTime 	350
scalar RSUExampleScenario.node[3].veinsmobility 	minSpeed 	0
scalar RSUExampleScenario.node[3].veinsmobility 	maxSpeed 	13.999540234564
scalar RSUExampleScenario.node[3].veinsmobility 	totalDistance 	2998.0011976976
scalar RSUExampleScenario.node[3].veinsmobility 	totalCO2Emission 	715.38765149268
scalar RSUExampleScenario.node[30].veinsmobility 	startTime 	72.4
scalar RSUExampleScenario.node[30].veinsmobility 	totalTime 	277.6
scalar RSUExampleScenario.node[30].veinsmobility 	stopTime 	350
scalar RSUExampleScenario.node[30].veinsmobility 	minSpeed 	0
scalar RSUExampleScenario.node[30].veinsmobility 	maxSpeed 	13.999997883148
scalar RSUExampleScenario.node[30].veinsmobility 	totalDistance 	2100.2957981994
scalar RSUExampleScenario.node[30].veinsmobility 	totalCO2Emission 	545.66207958982
scalar RSUExampleScenario.node[31].veinsmobility 	startTime 	74.8
scalar RSUExampleScenario.node[31].veinsmobility 	totalTime 	275.2
scalar RSUExampleScenario.node[31].veinsmobility 	stopTime 	350
scalar RSUExampleScenario.node[31].veinsmobility 	minSpeed 	0
scalar RSUExampleScenario.node[31].veinsmobility 	maxSpeed 	13.999875301053
scalar RSUExampleScenario.node[31].veinsmobility 	totalDistance 	2068.6439447983
scalar RSUExampleScenario.node[31].veinsmobility 	totalCO2Emission 	540.16177468403
scalar RSUExampleScenario.node[32].veinsmobility 	startTime 	77.2
scalar RSUExampleScenario.node[32].veinsmobility 	totalTime 	272.8
scalar RSUExampleScenario.node[32].veinsmobility 	stopTime 	350
scalar RSUExampleScenario.node[32].veinsmobility 	minSpeed 	0
scalar RSUExampleScenario.node[32].veinsmobility 	maxSpeed 	13.999910379013
scalar RSUExampleScenario.node[32].veinsmobility 	totalDistance 	2033.4692560269
scalar RSUExampleScenario.node[32].veinsmobility 	totalCO2Emission 	531.63387469515
scalar RSUExampleScenario.node[33].veinsmobility 	startTime 	79.6
scalar RSUExampleScenario.node[33].veinsmobility 	totalTime 	270.4
scalar RSUExampleScenario.node[33].veinsmobility 	stopTime 	350
scalar RSUExampleScenario.node[33].veinsmobility 	minSpeed 	0
scalar RSUExampleScenario.node[33].veinsmobility 	maxSpeed 	13.999627120628
scalar RSUExampleScenario.node[33].veinsmobility 	totalDistance 	1998.1351903571
scalar RSUExampleScenario.node[33].veinsmobility 	totalCO2Emission 	530.61171035021
scalar RSUExampleScenario.node[34].veinsmobility 	startTime 	82
scalar RSUExampleScenario.node[34].veinsmobility 	totalTime 	268
scalar RSUExampleScenario.node[34].veinsmobility 	stopTime 	350
scalar RSUExampleScenario.node[34].veinsmobility 	minSpeed 	0
scalar RSUExampleScenario.node[34].veinsmobility 	maxSpeed 	13.999849494237
scalar RSUExampleScenario.node[34].veinsmobility 	totalDistance 	1964.6901182319
scalar RSUExampleScenario.node[34].veinsmobility 	totalCO2Emission 	525.58206733281
scalar RSUExampleScenario.node[35].veinsmobility 	startTime 	84.4
scalar RSUExampleScenario.node[35].veinsmobility 	totalTime 	265.6
scalar RSUExampleScenario.node[35].veinsmobility 	stopTime 	350
scalar RSUExampleScenario.node[35].veinsmobility 	minSpeed 	0
scalar RSUExampleScenario.node[35].veinsmobility 	maxSpeed 	13.999876426114
scalar RSUExampleScenario.node[35].veinsmobility 	totalDistance 	1931.7744101382
scalar RSUExampleScenario.node[35].veinsmobility 	totalCO2Emission 	514.88431642031
scalar RSUExampleScenario.node[36].veinsmobility 	startTime 	86.8
scalar RSUExampleScenario.node[36].veinsmobility 	totalTime 	263.2
scalar RSUExampleScenario.node[36].veinsmobility 	stopTime 	350
scalar RSUExampleScenario.node[36].veinsmobility 	minSpeed 	0
scalar RSUExampleScenario.node[36].veinsmobility 	maxSpeed 	13.999870629129
scalar RSUExampleScenario.node[36].veinsmobility 	totalDistance 	1898.8697909881
scalar RSUExampleScenario.node[36].veinsmobility 	totalCO2Emission 	513.60598508493
scalar RSUExampleScenario.node[37].veinsmobility 	startTime 	89.2
scalar RSUExampleScenario.node[37].veinsmobility 	totalTime 	260.8
scalar RSUExampleScenario.node[37].veinsmobility 	stopTime 	350
scalar RSUExampleScenario.node[37].veinsmobility 	minSpeed 	0
scalar RSUExampleScenario.node[37].veinsmobility 	maxSpeed 	13.999847639203
scalar RSUExampleScenario.node[37].veinsmobility 	totalDistance 	1864.3695805683
scalar RSUExampleScenario.node[37].veinsmobility 	totalCO2Emission 	507.44596418078
scalar RSUExampleScenario.node[38].veinsmobility 	startTime 	91.6
scalar RSUExampleScenario.node[38].veinsmobility 	totalTime 	258.4
scalar RSUExampleScenario.node[38].veinsmobility 	stopTime 	350
scalar RSUExampleScenario.node[38].veinsmobility 	minSpeed 	0
scalar RSUExampleScenario.node[38].veinsmobility 	maxSpeed 	13.999931740158
scalar RSUExampleScenario.node[38].veinsmobility 	totalDistance 	1831.2226716563
scalar RSUExampleScenario.node[38].veinsmobility 	totalCO2Emission 	505.3098672053
scalar RSUExampleScenario.node[39].veinsmobility 	startTime 	94
scalar RSUExampleScenario.node[39].veinsmobility 	totalTime 	256
scalar RSUExampleScenario.node[39].veinsmobility 	stopTime 	350
scalar RSUExampleScenario.node[39].veinsmobility 	minSpeed 	0
scalar RSUExampleScenario.node[39].veinsmobility 	maxSpeed 	13.999960103862
scalar RSUExampleScenario.node[39].veinsmobility 	totalDistance 	1797.5735241173
scalar RSUExampleScenario.node[39].veinsmobility 	totalCO2Emission 	498.02125872557
scalar RSUExampleScenario.node[4].veinsmobility 	startTime 	9.7
scalar RSUExampleScenario.node[4].veinsmobility 	totalTime 	340.3
scalar RSUExampleScenario.node[4].veinsmobility 	stopTime 	350
scalar RSUExampleScenario.node[4].veinsmobility 	minSpeed 	0
scalar RSUExampleScenario.node[4].veinsmobility 	maxSpeed 	13.999908723112
scalar RSUExampleScenario.node[4].veinsmobility 	totalDistance 	2944.7607611449
scalar RSUExampleScenario.node[4].veinsmobility 	totalCO2Emission 	702.13286676872
scalar RSUExampleScenario.node[40].veinsmobility 	startTime 	96.5
scalar RSUExampleScenario.node[40].veinsmobility 	totalTime 	253.5
scalar RSUExampleScenario.node[40].veinsmobility 	stopTime 	350
scalar RSUExampleScenario.node[40].veinsmobility 	minSpeed 	0
scalar RSUExampleScenario.node[40].veinsmobility 	maxSpeed 	13.999842206887
scalar RSUExampleScenario.node[40].veinsmobility 	totalDistance 	1763.7215425952
scalar RSUExampleScenario.node[40].veinsmobility 	totalCO2Emission 	491.21667105382
scalar RSUExampleScenario.node[41].veinsmobility 	startTime 	98.9
scalar RSUExampleScenario.node[41].veinsmobility 	totalTime 	251.1
scalar RSUExampleScenario.node[41].veinsmobility 	stopTime 	350
scalar RSUExampleScenario.node[41].veinsmobility 	minSpeed 	0
scalar RSUExampleScenario.node[41].veinsmobility 	maxSpeed 	13.999829097793
scalar RSUExampleScenario.node[41].veinsmobility 	totalDistance 	1730.3289967559
scalar RSUExampleScenario.node[41].veinsmobility 	totalCO2Emission 	487.66578448197
scalar RSUExampleScenario.node[42].veinsmobility 	startTime 	101.3
scalar RSUExampleScenario.node[42].veinsmobility 	totalTime 	248.7
scalar RSUExampleScenario.node[42].veinsmobility 	stopTime 	350
scalar RSUExampleScenario.node[42].veinsmobility 	minSpeed 	0
scalar RSUExampleScenario.node[42].veinsmobility 	maxSpeed 	13.999873654142
scalar RSUExampleScenario.node[42].veinsmobility 	totalDistance 	1697.0431749375
scalar RSUExampleScenario.node[42].veinsmobility 	totalCO2Emission 	476.13324717162
scalar RSUExampleScenario.node[43].veinsmobility 	startTime 	103.7
scalar RSUExampleScenario.node[43].veinsmobility 	totalTime 	246.3
scalar RSUExampleScenario.node[43].veinsmobility 	stopTime 	350
scalar RSUExampleScenario.node[43].veinsmobility 	minSpeed 	0
scalar RSUExampleScenario.node[43].veinsmobility 	maxSpeed 	13.999984701623
scalar RSUExampleScenario.node[43].veinsmobility 	totalDistance 	1662.5169100572
scalar RSUExampleScenario.node[43].veinsmobility 	totalCO2Emission 	471.91095898782
scalar RSUExampleScenario.node[44].veinsmobility 	startTime 	106.1
scalar RSUExampleScenario.node[44].veinsmobility 	totalTime 	243.9
scalar RSUExampleScenario.node[44].veinsmobility 	stopTime 	350
scalar RSUExampleScenario.node[44].veinsmobility 	minSpeed 	0
scalar RSUExampleScenario.node[44].veinsmobility 	maxSpeed 	13.999918168448
scalar RSUExampleScenario.node[44].veinsmobility 	totalDistance 	1629.5760751108
scalar RSUExampleScenario.node[44].veinsmobility 	totalCO2Emission 	465.83840343128
scalar RSUExampleScenario.node[45].veinsmobility 	startTime 	108.5
scalar RSUExampleScenario.node[45].veinsmobility 	totalTime 	241.5
scalar RSUExampleScenario.node[45].veinsmobility 	stopTime 	350
scalar RSUExampleScenario.node[45].veinsmobility 	minSpeed 	0
scalar RSUExampleScenario.node[45].veinsmobility 	maxSpeed 	13.999846831835
scalar RSUExampleScenario.node[45].veinsmobility 	totalDistance 	1595.3689101802
scalar RSUExampleScenario.node[45].veinsmobility 	totalCO2Emission 	463.19176641773
scalar RSUExampleScenario.node[46].veinsmobility 	startTime 	110.9
scalar RSUExampleScenario.node[46].veinsmobility 	totalTime 	239.1
scalar RSUExampleScenario.node[46].veinsmobility 	stopTime 	350
scalar RSUExampleScenario.node[46].veinsmobility 	minSpeed 	0
scalar RSUExampleScenario.node[46].veinsmobility 	maxSpeed 	13.999625960214
scalar RSUExampleScenario.node[46].veinsmobility 	totalDistance 	1562.6128015537
scalar RSUExampleScenario.node[46].veinsmobility 	totalCO2Emission 	456.0277861614
scalar RSUExampleScenario.node[47].veinsmobility 	startTime 	113.3
scalar RSUExampleScenario.node[47].veinsmobility 	totalTime 	236.7
scalar RSUExampleScenario.node[47].veinsmobility 	stopTime 	350
scalar RSUExampleScenario.node[47].veinsmobility 	minSpeed 	0
scalar RSUExampleScenario.node[47].veinsmobility 	maxSpeed 	13.999766652854
scalar RSUExampleScenario.node[47].veinsmobility 	totalDistance 	1530.0982014311
scalar RSUExampleScenario.node[47].veinsmobility 	totalCO2Emission 	450.72171832029
scalar RSUExampleScenario.node[48].veinsmobility 	startTime 	115.7
scalar RSUExampleScenario.node[48].veinsmobility 	totalTime 	234.3
scalar RSUExampleScenario.node[48].veinsmobility 	stopTime 	350
scalar RSUExampleScenario.node[48].veinsmobility 	minSpeed 	0
scalar RSUExampleScenario.node[48].veinsmobility 	maxSpeed 	13.999950465476
scalar RSUExampleScenario.node[48].veinsmobility 	totalDistance 	1496.2009972623
scalar RSUExampleScenario.node[48].veinsmobility 	totalCO2Emission 	443.50000226227
scalar RSUExampleScenario.node[49].veinsmobility 	startTime 	118.1
scalar RSUExampleScenario.node[49].veinsmobility 	totalTime 	231.9
scalar RSUExampleScenario.node[49].veinsmobility 	stopTime 	350
scalar RSUExampleScenario.node[49].veinsmobility 	minSpeed 	0
scalar RSUExampleScenario.node[49].veinsmobility 	maxSpeed 	13.99972242458
scalar RSUExampleScenario.node[49].veinsmobility 	totalDistance 	1461.6499858906
scalar RSUExampleScenario.node[49].veinsmobility 	totalCO2Emission 	440.52692591744
scalar RSUExampleScenario.node[5].veinsmobility 	startTime 	12.1
scalar RSUExampleScenario.node[5].veinsmobility 	totalTime 	337.9
scalar RSUExampleScenario.node[5].veinsmobility 	stopTime 	350
scalar RSUExampleScenario.node[5].veinsmobility 	minSpeed 	0
scalar RSUExampleScenario.node[5].veinsmobility 	maxSpeed 	13.999994687787
scalar RSUExampleScenario.node[5].veinsmobility 	totalDistance 	2918.0225327956
scalar RSUExampleScenario.node[5].veinsmobility 	totalCO2Emission 	690.36803975623
scalar RSUExampleScenario.node[50].veinsmobility 	startTime 	120.6
scalar RSUExampleScenario.node[50].veinsmobility 	totalTime 	229.4
scalar RSUExampleScenario.node[50].veinsmobility 	stopTime 	350
scalar RSUExampleScenario.node[50].veinsmobility 	minSpeed 	0
scalar RSUExampleScenario.node[50].veinsmobility 	maxSpeed 	13.999910896081
scalar RSUExampleScenario.node[50].veinsmobility 	totalDistance 	1429.9808697105
scalar RSUExampleScenario.node[50].veinsmobility 	totalCO2Emission 	434.38509727118
scalar RSUExampleScenario.node[51].veinsmobility 	startTime 	123
scalar RSUExampleScenario.node[51].veinsmobility 	totalTime 	227
scalar RSUExampleScenario.node[51].veinsmobility 	stopTime 	350
scalar RSUExampleScenario.node[51].veinsmobility 	minSpeed 	0
scalar RSUExampleScenario.node[51].veinsmobility 	maxSpeed 	13.999996113076
scalar RSUExampleScenario.node[51].veinsmobility 	totalDistance 	1393.6586094859
scalar RSUExampleScenario.node[51].veinsmobility 	totalCO2Emission 	427.86785487534
scalar RSUExampleScenario.node[52].veinsmobility 	startTime 	125.4
scalar RSUExampleScenario.node[52].veinsmobility 	totalTime 	224.6
scalar RSUExampleScenario.node[52].veinsmobility 	stopTime 	350
scalar RSUExampleScenario.node[52].veinsmobility 	minSpeed 	0
scalar RSUExampleScenario.node[52].veinsmobility 	maxSpeed 	13.999685927082
scalar RSUExampleScenario.node[52].veinsmobility 	totalDistance 	1361.5071510959
scalar RSUExampleScenario.node[52].veinsmobility 	totalCO2Emission 	421.09741555757
scalar RSUExampleScenario.node[53].veinsmobility 	startTime 	127.8
scalar RSUExampleScenario.node[53].veinsmobility 	totalTime 	222.2
scalar RSUExampleScenario.node[53].veinsmobility 	stopTime 	350
scalar RSUExampleScenario.node[53].veinsmobility 	minSpeed 	0
scalar RSUExampleScenario.node[53].veinsmobility 	maxSpeed 	13.999872337272
scalar RSUExampleScenario.node[53].veinsmobility 	totalDistance 	1327.1523453095
scalar RSUExampleScenario.node[53].veinsmobility 	totalCO2Emission 	414.57675961624
scalar RSUExampleScenario.node[54].veinsmobility 	startTime 	130.2
scalar RSUExampleScenario.node[54].veinsmobility 	totalTime 	219.8
scalar RSUExampleScenario.node[54].veinsmobility 	stopTime 	350
scalar RSUExampleScenario.node[54].veinsmobility 	minSpeed 	0
scalar RSUExampleScenario.node[54].veinsmobility 	maxSpeed 	13.999863643339
scalar RSUExampleScenario.node[54].veinsmobility 	totalDistance 	1295.0315685346
scalar RSUExampleScenario.node[54].veinsmobility 	totalCO2Emission 	409.53001900926
scalar RSUExampleScenario.node[55].veinsmobility 	startTime 	132.6
scalar RSUExampleScenario.node[55].veinsmobility 	totalTime 	217.4
scalar RSUExampleScenario.node[55].veinsmobility 	stopTime 	350
scalar RSUExampleScenario.node[55].veinsmobility 	minSpeed 	0
scalar RSUExampleScenario.node[55].veinsmobility 	maxSpeed 	13.999900157847
scalar RSUExampleScenario.node[55].veinsmobility 	totalDistance 	1261.1222925019
scalar RSUExampleScenario.node[55].veinsmobility 	totalCO2Emission 	403.10648557034
scalar RSUExampleScenario.node[56].veinsmobility 	startTime 	135
scalar RSUExampleScenario.node[56].veinsmobility 	totalTime 	215
scalar RSUExampleScenario.node[56].veinsmobility 	stopTime 	350
scalar RSUExampleScenario.node[56].veinsmobility 	minSpeed 	0
scalar RSUExampleScenario.node[56].veinsmobility 	maxSpeed 	13.999892266681
scalar RSUExampleScenario.node[56].veinsmobility 	totalDistance 	1226.0985473389
scalar RSUExampleScenario.node[56].veinsmobility 	totalCO2Emission 	399.87526260555
scalar RSUExampleScenario.node[57].veinsmobility 	startTime 	137.4
scalar RSUExampleScenario.node[57].veinsmobility 	totalTime 	212.6
scalar RSUExampleScenario.node[57].veinsmobility 	stopTime 	350
scalar RSUExampleScenario.node[57].veinsmobility 	minSpeed 	0
scalar RSUExampleScenario.node[57].veinsmobility 	maxSpeed 	13.999842036599
scalar RSUExampleScenario.node[57].veinsmobility 	totalDistance 	1191.0992694558
scalar RSUExampleScenario.node[57].veinsmobility 	totalCO2Emission 	393.23307008688
scalar RSUExampleScenario.node[58].veinsmobility 	startTime 	139.8
scalar RSUExampleScenario.node[58].veinsmobility 	totalTime 	210.2
scalar RSUExampleScenario.node[58].veinsmobility 	stopTime 	350
scalar RSUExampleScenario.node[58].veinsmobility 	minSpeed 	0
scalar RSUExampleScenario.node[58].veinsmobility 	maxSpeed 	13.999638011714
scalar RSUExampleScenario.node[58].veinsmobility 	totalDistance 	1157.9308223797
scalar RSUExampleScenario.node[58].veinsmobility 	totalCO2Emission 	388.57890207128
scalar RSUExampleScenario.node[59].veinsmobility 	startTime 	142.2
scalar RSUExampleScenario.node[59].veinsmobility 	totalTime 	207.8
scalar RSUExampleScenario.node[59].veinsmobility 	stopTime 	350
scalar RSUExampleScenario.node[59].veinsmobility 	minSpeed 	0
scalar RSUExampleScenario.node[59].veinsmobility 	maxSpeed 	13.9999411252
scalar RSUExampleScenario.node[59].veinsmobility 	totalDistance 	1125.4933894092
scalar RSUExampleScenario.node[59].veinsmobility 	totalCO2Emission 	381.57222500043
scalar RSUExampleScenario.node[6].veinsmobility 	startTime 	14.5
scalar RSUExampleScenario.node[6].veinsmobility 	totalTime 	335.5
scalar RSUExampleScenario.node[6].veinsmobility 	stopTime 	350
scalar RSUExampleScenario.node[6].veinsmobility 	minSpeed 	0
scalar RSUExampleScenario.node[6].veinsmobility 	maxSpeed 	13.999992376857
scalar RSUExampleScenario.node[6].veinsmobility 	totalDistance 	2901.5160178893
scalar RSUExampleScenario.node[6].veinsmobility 	totalCO2Emission 	685.20848417082
scalar RSUExampleScenario.node[60].veinsmobility 	startTime 	144.7
scalar RSUExampleScenario.node[60].veinsmobility 	totalTime 	205.3
scalar RSUExampleScenario.node[60].veinsmobility 	stopTime 	350
scalar RSUExampleScenario.node[60].veinsmobility 	minSpeed 	0
scalar RSUExampleScenario.node[60].veinsmobility 	maxSpeed 	13.999686230246
scalar RSUExampleScenario.node[60].veinsmobility 	totalDistance 	1092.3375447569
scalar RSUExampleScenario.node[60].veinsmobility 	totalCO2Emission 	376.64897913967
scalar RSUExampleScenario.node[61].veinsmobility 	startTime 	147.1
scalar RSUExampleScenario.node[61].veinsmobility 	totalTime 	202.9
scalar RSUExampleScenario.node[61].veinsmobility 	stopTime 	350
scalar RSUExampleScenario.node[61].veinsmobility 	minSpeed 	0
scalar RSUExampleScenario.node[61].veinsmobility 	maxSpeed 	13.999809944637
scalar RSUExampleScenario.node[61].veinsmobility 	totalDistance 	1057.4155203633
scalar RSUExampleScenario.node[61].veinsmobility 	totalCO2Emission 	371.33776379567
scalar RSUExampleScenario.node[62].veinsmobility 	startTime 	149.5
scalar RSUExampleScenario.node[62].veinsmobility 	totalTime 	200.5
scalar RSUExampleScenario.node[62].veinsmobility 	stopTime 	350
scalar RSUExampleScenario.node[62].veinsmobility 	minSpeed 	0
scalar RSUExampleScenario.node[62].veinsmobility 	maxSpeed 	13.999727531183
scalar RSUExampleScenario.node[62].veinsmobility 	totalDistance 	1025.4391896502
scalar RSUExampleScenario.node[62].veinsmobility 	totalCO2Emission 	366.3926084366
scalar RSUExampleScenario.node[63].veinsmobility 	startTime 	151.9
scalar RSUExampleScenario.node[63].veinsmobility 	totalTime 	198.1
scalar RSUExampleScenario.node[63].veinsmobility 	stopTime 	350
scalar RSUExampleScenario.node[63].veinsmobility 	minSpeed 	0
scalar RSUExampleScenario.node[63].veinsmobility 	maxSpeed 	13.99916102767
scalar RSUExampleScenario.node[63].veinsmobility 	totalDistance 	986.75095960744
scalar RSUExampleScenario.node[63].veinsmobility 	totalCO2Emission 	353.86888159689
scalar RSUExampleScenario.node[64].veinsmobility 	startTime 	154.3
scalar RSUExampleScenario.node[64].veinsmobility 	totalTime 	195.7
scalar RSUExampleScenario.node[64].veinsmobility 	stopTime 	350
scalar RSUExampleScenario.node[64].veinsmobility 	minSpeed 	0
scalar RSUExampleScenario.node[64].veinsmobility 	maxSpeed 	13.999735889293
scalar RSUExampleScenario.node[64].veinsmobility 	totalDistance 	953.09632264782
scalar RSUExampleScenario.node[64].veinsmobility 	totalCO2Emission 	339.23999065237
scalar RSUExampleScenario.node[65].veinsmobility 	startTime 	156.7
scalar RSUExampleScenario.node[65].veinsmobility 	totalTime 	193.3
scalar RSUExampleScenario.node[65].veinsmobility 	stopTime 	350
scalar RSUExampleScenario.node[65].veinsmobility 	minSpeed 	0
scalar RSUExampleScenario.node[65].veinsmobility 	maxSpeed 	13.99991989793
scalar RSUExampleScenario.node[65].veinsmobility 	totalDistance 	940.41697151298
scalar RSUExampleScenario.node[65].veinsmobility 	totalCO2Emission 	330.74141218956
scalar RSUExampleScenario.node[66].veinsmobility 	startTime 	159.1
scalar RSUExampleScenario.node[66].veinsmobility 	totalTime 	190.9
scalar RSUExampleScenario.node[66].veinsmobility 	stopTime 	350
scalar RSUExampleScenario.node[66].veinsmobility 	minSpeed 	0
scalar RSUExampleScenario.node[66].veinsmobility 	maxSpeed 	13.999305615043
scalar RSUExampleScenario.node[66].veinsmobility 	totalDistance 	928.21750910389
scalar RSUExampleScenario.node[66].veinsmobility 	totalCO2Emission 	327.74473593372
scalar RSUExampleScenario.node[67].veinsmobility 	startTime 	161.5
scalar RSUExampleScenario.node[67].veinsmobility 	totalTime 	188.5
scalar RSUExampleScenario.node[67].veinsmobility 	stopTime 	350
scalar RSUExampleScenario.node[67].veinsmobility 	minSpeed 	0
scalar RSUExampleScenario.node[67].veinsmobility 	maxSpeed 	13.999933899809
scalar RSUExampleScenario.node[67].veinsmobility 	totalDistance 	913.0590930997
scalar RSUExampleScenario.node[67].veinsmobility 	totalCO2Emission 	323.91753902053
scalar RSUExampleScenario.node[68].veinsmobility 	startTime 	163.9
scalar RSUExampleScenario.node[68].veinsmobility 	totalTime 	186.1
scalar RSUExampleScenario.node[68].veinsmobility 	stopTime 	350
scalar RSUExampleScenario.node[68].veinsmobility 	minSpeed 	0
scalar RSUExampleScenario.node[68].veinsmobility 	maxSpeed 	13.999899402903
scalar RSUExampleScenario.node[68].veinsmobility 	totalDistance 	892.49002889935
scalar RSUExampleScenario.node[68].veinsmobility 	totalCO2Emission 	323.46107777142
scalar RSUExampleScenario.node[69].veinsmobility 	startTime 	166.3
scalar RSUExampleScenario.node[69].veinsmobility 	totalTime 	183.7
scalar RSUExampleScenario.node[69].veinsmobility 	stopTime 	350
scalar RSUExampleScenario.node[69].veinsmobility 	minSpeed 	0
scalar RSUExampleScenario.node[69].veinsmobility 	maxSpeed 	13.99978331998
scalar RSUExampleScenario.node[69].veinsmobility 	totalDistance 	860.75656119827
scalar RSUExampleScenario.node[69].veinsmobility 	totalCO2Emission 	313.6297343306
scalar RSUExampleScenario.node[7].veinsmobility 	startTime 	16.9
scalar RSUExampleScenario.node[7].veinsmobility 	totalTime 	333.1
scalar RSUExampleScenario.node[7].veinsmobility 	stopTime 	350
scalar RSUExampleScenario.node[7].veinsmobility 	minSpeed 	0
scalar RSUExampleScenario.node[7].veinsmobility 	maxSpeed 	13.999945251332
scalar RSUExampleScenario.node[7].veinsmobility 	totalDistance 	2889.6482945464
scalar RSUExampleScenario.node[7].veinsmobility 	totalCO2Emission 	678.94228934273
scalar RSUExampleScenario.node[70].veinsmobility 	startTime 	168.8
scalar RSUExampleScenario.node[70].veinsmobility 	totalTime 	181.2
scalar RSUExampleScenario.node[70].veinsmobility 	stopTime 	350
scalar RSUExampleScenario.node[70].veinsmobility 	minSpeed 	0
scalar RSUExampleScenario.node[70].veinsmobility 	maxSpeed 	13.999917743667
scalar RSUExampleScenario.node[70].veinsmobility 	totalDistance 	825.66727235262
scalar RSUExampleScenario.node[70].veinsmobility 	totalCO2Emission 	310.57282637322
scalar RSUExampleScenario.node[71].veinsmobility 	startTime 	171.2
scalar RSUExampleScenario.node[71].veinsmobility 	totalTime 	178.8
scalar RSUExampleScenario.node[71].veinsmobility 	stopTime 	350
scalar RSUExampleScenario.node[71].veinsmobility 	minSpeed 	0
scalar RSUExampleScenario.node[71].veinsmobility 	maxSpeed 	13.999956128979
scalar RSUExampleScenario.node[71].veinsmobility 	totalDistance 	791.54892018777
scalar RSUExampleScenario.node[71].veinsmobility 	totalCO2Emission 	304.75876159216
scalar RSUExampleScenario.node[72].veinsmobility 	startTime 	173.6
scalar RSUExampleScenario.node[72].veinsmobility 	totalTime 	176.4
scalar RSUExampleScenario.node[72].veinsmobility 	stopTime 	350
scalar RSUExampleScenario.node[72].veinsmobility 	minSpeed 	0
scalar RSUExampleScenario.node[72].veinsmobility 	maxSpeed 	13.998643082599
scalar RSUExampleScenario.node[72].veinsmobility 	totalDistance 	758.17619300124
scalar RSUExampleScenario.node[72].veinsmobility 	totalCO2Emission 	297.7583535092
scalar RSUExampleScenario.node[73].veinsmobility 	startTime 	176
scalar RSUExampleScenario.node[73].veinsmobility 	totalTime 	174
scalar RSUExampleScenario.node[73].veinsmobility 	stopTime 	350
scalar RSUExampleScenario.node[73].veinsmobility 	minSpeed 	0
scalar RSUExampleScenario.node[73].veinsmobility 	maxSpeed 	13.999896542609
scalar RSUExampleScenario.node[73].veinsmobility 	totalDistance 	724.16926189156
scalar RSUExampleScenario.node[73].veinsmobility 	totalCO2Emission 	292.70593004756
scalar RSUExampleScenario.node[74].veinsmobility 	startTime 	178.4
scalar RSUExampleScenario.node[74].veinsmobility 	totalTime 	171.6
scalar RSUExampleScenario.node[74].veinsmobility 	stopTime 	350
scalar RSUExampleScenario.node[74].veinsmobility 	minSpeed 	0
scalar RSUExampleScenario.node[74].veinsmobility 	maxSpeed 	13.99847402568
scalar RSUExampleScenario.node[74].veinsmobility 	totalDistance 	690.37755442615
scalar RSUExampleScenario.node[74].veinsmobility 	totalCO2Emission 	288.9875888921
scalar RSUExampleScenario.node[75].veinsmobility 	startTime 	180.8
scalar RSUExampleScenario.node[75].veinsmobility 	totalTime 	169.2
scalar RSUExampleScenario.node[75].veinsmobility 	stopTime 	350
scalar RSUExampleScenario.node[75].veinsmobility 	minSpeed 	0
scalar RSUExampleScenario.node[75].veinsmobility 	maxSpeed 	13.999620223492
scalar RSUExampleScenario.node[75].veinsmobility 	totalDistance 	658.76602760397
scalar RSUExampleScenario.node[75].veinsmobility 	totalCO2Emission 	282.25909511136
scalar RSUExampleScenario.node[76].veinsmobility 	startTime 	183.2
scalar RSUExampleScenario.node[76].veinsmobility 	totalTime 	166.8
scalar RSUExampleScenario.node[76].veinsmobility 	stopTime 	350
scalar RSUExampleScenario.node[76].veinsmobility 	minSpeed 	0
scalar RSUExampleScenario.node[76].veinsmobility 	maxSpeed 	13.999826735226
scalar RSUExampleScenario.node[76].veinsmobility 	totalDistance 	624.72792416236
scalar RSUExampleScenario.node[76].veinsmobility 	totalCO2Emission 	276.44435022289
scalar RSUExampleScenario.node[77].veinsmobility 	startTime 	185.6
scalar RSUExampleScenario.node[77].veinsmobility 	totalTime 	164.4
scalar RSUExampleScenario.node[77].veinsmobility 	stopTime 	350
scalar RSUExampleScenario.node[77].veinsmobility 	minSpeed 	0
scalar RSUExampleScenario.node[77].veinsmobility 	maxSpeed 	13.999525940449
scalar RSUExampleScenario.node[77].veinsmobility 	totalDistance 	590.66236856812
scalar RSUExampleScenario.node[77].veinsmobility 	totalCO2Emission 	270.67640306475
scalar RSUExampleScenario.node[78].veinsmobility 	startTime 	188
scalar RSUExampleScenario.node[78].veinsmobility 	totalTime 	162
scalar RSUExampleScenario.node[78].veinsmobility 	stopTime 	350
scalar RSUExampleScenario.node[78].veinsmobility 	minSpeed 	0
scalar RSUExampleScenario.node[78].veinsmobility 	maxSpeed 	13.999019322565
scalar RSUExampleScenario.node[78].veinsmobility 	totalDistance 	557.35194426026
scalar RSUExampleScenario.node[78].veinsmobility 	totalCO2Emission 	264.7037298193
scalar RSUExampleScenario.node[79].veinsmobility 	startTime 	190.4
scalar RSUExampleScenario.node[79].veinsmobility 	totalTime 	159.6
scalar RSUExampleScenario.node[79].veinsmobility 	stopTime 	350
scalar RSUExampleScenario.node[79].veinsmobility 	minSpeed 	0
scalar RSUExampleScenario.node[79].veinsmobility 	maxSpeed 	13.998391249615
scalar RSUExampleScenario.node[79].veinsmobility 	totalDistance 	524.35350692636
scalar RSUExampleScenario.node[79].veinsmobility 	totalCO2Emission 	259.85231887578
scalar RSUExampleScenario.node[8].veinsmobility 	startTime 	19.3
scalar RSUExampleScenario.node[8].veinsmobility 	totalTime 	330.7
scalar RSUExampleScenario.node[8].veinsmobility 	stopTime 	350
scalar RSUExampleScenario.node[8].veinsmobility 	minSpeed 	0
scalar RSUExampleScenario.node[8].veinsmobility 	maxSpeed 	13.999941336804
scalar RSUExampleScenario.node[8].veinsmobility 	totalDistance 	2859.1399001236
scalar RSUExampleScenario.node[8].veinsmobility 	totalCO2Emission 	674.50164564002
scalar RSUExampleScenario.node[80].veinsmobility 	startTime 	192.9
scalar RSUExampleScenario.node[80].veinsmobility 	totalTime 	157.1
scalar RSUExampleScenario.node[80].veinsmobility 	stopTime 	350
scalar RSUExampleScenario.node[80].veinsmobility 	minSpeed 	0
scalar RSUExampleScenario.node[80].veinsmobility 	maxSpeed 	13.995609091439
scalar RSUExampleScenario.node[80].veinsmobility 	totalDistance 	490.50100095356
scalar RSUExampleScenario.node[80].veinsmobility 	totalCO2Emission 	253.60917189657
scalar RSUExampleScenario.node[81].veinsmobility 	startTime 	195.3
scalar RSUExampleScenario.node[81].veinsmobility 	totalTime 	154.7
scalar RSUExampleScenario.node[81].veinsmobility 	stopTime 	350
scalar RSUExampleScenario.node[81].veinsmobility 	minSpeed 	0
scalar RSUExampleScenario.node[81].veinsmobility 	maxSpeed 	13.999279338256
scalar RSUExampleScenario.node[81].veinsmobility 	totalDistance 	458.10303317016
scalar RSUExampleScenario.node[81].veinsmobility 	totalCO2Emission 	248.30015458267
scalar RSUExampleScenario.node[82].veinsmobility 	startTime 	197.7
scalar RSUExampleScenario.node[82].veinsmobility 	totalTime 	152.3
scalar RSUExampleScenario.node[82].veinsmobility 	stopTime 	350
scalar RSUExampleScenario.node[82].veinsmobility 	minSpeed 	0
scalar RSUExampleScenario.node[82].veinsmobility 	maxSpeed 	13.99908908379
scalar RSUExampleScenario.node[82].veinsmobility 	totalDistance 	421.48611396821
scalar RSUExampleScenario.node[82].veinsmobility 	totalCO2Emission 	241.7311454809
scalar RSUExampleScenario.node[83].veinsmobility 	startTime 	200.1
scalar RSUExampleScenario.node[83].veinsmobility 	totalTime 	149.9
scalar RSUExampleScenario.node[83].veinsmobility 	stopTime 	350
scalar RSUExampleScenario.node[83].veinsmobility 	minSpeed 	0
scalar RSUExampleScenario.node[83].veinsmobility 	maxSpeed 	13.999852368485
scalar RSUExampleScenario.node[83].veinsmobility 	totalDistance 	389.30623364274
scalar RSUExampleScenario.node[83].veinsmobility 	totalCO2Emission 	236.38100297974
scalar RSUExampleScenario.node[84].veinsmobility 	startTime 	202.5
scalar RSUExampleScenario.node[84].veinsmobility 	totalTime 	147.5
scalar RSUExampleScenario.node[84].veinsmobility 	stopTime 	350
scalar RSUExampleScenario.node[84].veinsmobility 	minSpeed 	0
scalar RSUExampleScenario.node[84].veinsmobility 	maxSpeed 	13.994490939062
scalar RSUExampleScenario.node[84].veinsmobility 	totalDistance 	356.23218014285
scalar RSUExampleScenario.node[84].veinsmobility 	totalCO2Emission 	230.36877706868
scalar RSUExampleScenario.node[85].veinsmobility 	startTime 	204.9
scalar RSUExampleScenario.node[85].veinsmobility 	totalTime 	145.1
scalar RSUExampleScenario.node[85].veinsmobility 	stopTime 	350
scalar RSUExampleScenario.node[85].veinsmobility 	minSpeed 	0
scalar RSUExampleScenario.node[85].veinsmobility 	maxSpeed 	13.998500105785
scalar RSUExampleScenario.node[85].veinsmobility 	totalDistance 	320.79799997099
scalar RSUExampleScenario.node[85].veinsmobility 	totalCO2Emission 	224.95484295892
scalar RSUExampleScenario.node[86].veinsmobility 	startTime 	207.3
scalar RSUExampleScenario.node[86].veinsmobility 	totalTime 	142.7
scalar RSUExampleScenario.node[86].veinsmobility 	stopTime 	350
scalar RSUExampleScenario.node[86].veinsmobility 	minSpeed 	0
scalar RSUExampleScenario.node[86].veinsmobility 	maxSpeed 	13.800126991062
scalar RSUExampleScenario.node[86].veinsmobility 	totalDistance 	283.99823557653
scalar RSUExampleScenario.node[86].veinsmobility 	totalCO2Emission 	216.84771372337
scalar RSUExampleScenario.node[87].veinsmobility 	startTime 	209.7
scalar RSUExampleScenario.node[87].veinsmobility 	totalTime 	140.3
scalar RSUExampleScenario.node[87].veinsmobility 	stopTime 	350
scalar RSUExampleScenario.node[87].veinsmobility 	minSpeed 	0
scalar RSUExampleScenario.node[87].veinsmobility 	maxSpeed 	13.731523849716
scalar RSUExampleScenario.node[87].veinsmobility 	totalDistance 	247.93410663463
scalar RSUExampleScenario.node[87].veinsmobility 	totalCO2Emission 	200.80712929114
scalar RSUExampleScenario.node[88].veinsmobility 	startTime 	212.1
scalar RSUExampleScenario.node[88].veinsmobility 	totalTime 	137.9
scalar RSUExampleScenario.node[88].veinsmobility 	stopTime 	350
scalar RSUExampleScenario.node[88].veinsmobility 	minSpeed 	0
scalar RSUExampleScenario.node[88].veinsmobility 	maxSpeed 	13.81684682311
scalar RSUExampleScenario.node[88].veinsmobility 	totalDistance 	225.50111630489
scalar RSUExampleScenario.node[88].veinsmobility 	totalCO2Emission 	190.23712178669
scalar RSUExampleScenario.node[89].veinsmobility 	startTime 	214.5
scalar RSUExampleScenario.node[89].veinsmobility 	totalTime 	135.5
scalar RSUExampleScenario.node[89].veinsmobility 	stopTime 	350
scalar RSUExampleScenario.node[89].veinsmobility 	minSpeed 	0
scalar RSUExampleScenario.node[89].veinsmobility 	maxSpeed 	13.822823038897
scalar RSUExampleScenario.node[89].veinsmobility 	totalDistance 	215.20685368312
scalar RSUExampleScenario.node[89].veinsmobility 	totalCO2Emission 	185.66180598387
scalar RSUExampleScenario.node[9].veinsmobility 	startTime 	21.7
scalar RSUExampleScenario.node[9].veinsmobility 	totalTime 	328.3
scalar RSUExampleScenario.node[9].veinsmobility 	stopTime 	350
scalar RSUExampleScenario.node[9].veinsmobility 	minSpeed 	0
scalar RSUExampleScenario.node[9].veinsmobility 	maxSpeed 	13.99995668821
scalar RSUExampleScenario.node[9].veinsmobility 	totalDistance 	2830.5759141433
scalar RSUExampleScenario.node[9].veinsmobility 	totalCO2Emission 	666.98911221006
scalar RSUExampleScenario.node[90].veinsmobility 	startTime 	217
scalar RSUExampleScenario.node[90].veinsmobility 	totalTime 	133
scalar RSUExampleScenario.node[90].veinsmobility 	stopTime 	350
scalar RSUExampleScenario.node[90].veinsmobility 	minSpeed 	0
scalar RSUExampleScenario.node[90].veinsmobility 	maxSpeed 	13.800813693788
scalar RSUExampleScenario.node[90].veinsmobility 	totalDistance 	202.06771972533
scalar RSUExampleScenario.node[90].veinsmobility 	totalCO2Emission 	182.51700713917
scalar RSUExampleScenario.node[91].veinsmobility 	startTime 	219.4
scalar RSUExampleScenario.node[91].veinsmobility 	totalTime 	130.6
scalar RSUExampleScenario.node[91].veinsmobility 	stopTime 	350
scalar RSUExampleScenario.node[91].veinsmobility 	minSpeed 	0
scalar RSUExampleScenario.node[91].veinsmobility 	maxSpeed 	13.8799058438
scalar RSUExampleScenario.node[91].veinsmobility 	totalDistance 	185.34218291359
scalar RSUExampleScenario.node[91].veinsmobility 	totalCO2Emission 	180.25076671417
scalar RSUExampleScenario.node[92].veinsmobility 	startTime 	221.8
scalar RSUExampleScenario.node[92].veinsmobility 	totalTime 	128.2
scalar RSUExampleScenario.node[92].veinsmobility 	stopTime 	350
scalar RSUExampleScenario.node[92].veinsmobility 	minSpeed 	0
scalar RSUExampleScenario.node[92].veinsmobility 	maxSpeed 	13.838569235029
scalar RSUExampleScenario.node[92].veinsmobility 	totalDistance 	149.36957890878
scalar RSUExampleScenario.node[92].veinsmobility 	totalCO2Emission 	166.44248211588
scalar RSUExampleScenario.node[93].veinsmobility 	startTime 	224.2
scalar RSUExampleScenario.node[93].veinsmobility 	totalTime 	125.8
scalar RSUExampleScenario.node[93].veinsmobility 	stopTime 	350
scalar RSUExampleScenario.node[93].veinsmobility 	minSpeed 	0
scalar RSUExampleScenario.node[93].veinsmobility 	maxSpeed 	13.79742075691
scalar RSUExampleScenario.node[93].veinsmobility 	totalDistance 	122.76000654114
scalar RSUExampleScenario.node[93].veinsmobility 	totalCO2Emission 	153.73137643831
scalar RSUExampleScenario.node[94].veinsmobility 	startTime 	226.6
scalar RSUExampleScenario.node[94].veinsmobility 	totalTime 	123.4
scalar RSUExampleScenario.node[94].veinsmobility 	stopTime 	350
scalar RSUExampleScenario.node[94].veinsmobility 	minSpeed 	0
scalar RSUExampleScenario.node[94].veinsmobility 	maxSpeed 	13.808255007605
scalar RSUExampleScenario.node[94].veinsmobility 	totalDistance 	111.57713611806
scalar RSUExampleScenario.node[94].veinsmobility 	totalCO2Emission 	148.11560990341
scalar RSUExampleScenario.node[95].veinsmobility 	startTime 	229
scalar RSUExampleScenario.node[95].veinsmobility 	totalTime 	121
scalar RSUExampleScenario.node[95].veinsmobility 	stopTime 	350
scalar RSUExampleScenario.node[95].veinsmobility 	minSpeed 	0
scalar RSUExampleScenario.node[95].veinsmobility 	maxSpeed 	13.852837270477
scalar RSUExampleScenario.node[95].veinsmobility 	totalDistance 	98.886237136835
scalar RSUExampleScenario.node[95].veinsmobility 	totalCO2Emission 	144.95337714366
scalar RSUExampleScenario.node[96].veinsmobility 	startTime 	231.4
scalar RSUExampleScenario.node[96].veinsmobility 	totalTime 	118.6
scalar RSUExampleScenario.node[96].veinsmobility 	stopTime 	350
scalar RSUExampleScenario.node[96].veinsmobility 	minSpeed 	0
scalar RSUExampleScenario.node[96].veinsmobility 	maxSpeed 	13.79656793421
scalar RSUExampleScenario.node[96].veinsmobility 	totalDistance 	82.888516793939
scalar RSUExampleScenario.node[96].veinsmobility 	totalCO2Emission 	142.41347222576
scalar RSUExampleScenario.node[97].veinsmobility 	startTime 	233.8
scalar RSUExampleScenario.node[97].veinsmobility 	totalTime 	116.2
scalar RSUExampleScenario.node[97].veinsmobility 	stopTime 	350
scalar RSUExampleScenario.node[97].veinsmobility 	minSpeed 	0
scalar RSUExampleScenario.node[97].veinsmobility 	maxSpeed 	12.586977580057
scalar RSUExampleScenario.node[97].veinsmobility 	totalDistance 	57.827580346474
scalar RSUExampleScenario.node[97].veinsmobility 	totalCO2Emission 	135.47257051425
scalar RSUExampleScenario.node[98].veinsmobility 	startTime 	236.2
scalar RSUExampleScenario.node[98].veinsmobility 	totalTime 	113.8
scalar RSUExampleScenario.node[98].veinsmobility 	stopTime 	350
scalar RSUExampleScenario.node[98].veinsmobility 	minSpeed 	0
scalar RSUExampleScenario.node[98].veinsmobility 	maxSpeed 	7.402532721352
scalar RSUExampleScenario.node[98].veinsmobility 	totalDistance 	20.476070528332
scalar RSUExampleScenario.node[98].veinsmobility 	totalCO2Emission 	118.65569879209
scalar RSUExampleScenario.node[99].veinsmobility 	startTime 	238.6
scalar RSUExampleScenario.node[99].veinsmobility 	totalTime 	111.4
scalar RSUExampleScenario.node[99].veinsmobility 	stopTime 	350
scalar RSUExampleScenario.node[99].veinsmobility 	minSpeed 	0
scalar RSUExampleScenario.node[99].veinsmobility 	maxSpeed 	3.0764577429464
scalar RSUExampleScenario.node[99].veinsmobility 	totalDistance 	3.3529858353432
scalar RSUExampleScenario.node[99].veinsmobility 	totalCO2Emission 	109.80051087293
