version 2
run statisticLeach-793-20150322-04:41:17-13824
attr c 10
attr configname statisticLeach
attr datetime 20150322-04:41:17
attr experiment statisticLeach
attr inifile omnetpp.ini
attr iterationvars "$p=1/4, $c=10"
attr iterationvars2 "$p=1/4, $c=10, $repetition=3"
attr measurement "$p=1/4, $c=10"
attr network RSUExampleScenario
attr p 1/4
attr processid 13824
attr repetition 3
attr replication #3
attr resultdir results
attr runnumber 793
attr seedset 793

scalar . 	c 	10
scalar RSUExampleScenario.node[0].appl 	meanClusterNodes 	0
scalar RSUExampleScenario.node[0].appl 	meanClusterHeadUtility 	0
scalar RSUExampleScenario.node[0].appl 	NumberofCH 	0.21621621621622
scalar RSUExampleScenario.node[0].appl 	NumberofON 	0
scalar RSUExampleScenario.node[0].appl 	NumberofFN 	0.78378378378378
scalar RSUExampleScenario.node[0].veinsmobility 	startTime 	0.1
scalar RSUExampleScenario.node[0].veinsmobility 	totalTime 	449.9
scalar RSUExampleScenario.node[0].veinsmobility 	stopTime 	450
scalar RSUExampleScenario.node[0].veinsmobility 	minSpeed 	0
scalar RSUExampleScenario.node[0].veinsmobility 	maxSpeed 	13.999889322666
scalar RSUExampleScenario.node[0].veinsmobility 	totalDistance 	3130.463847901
scalar RSUExampleScenario.node[0].veinsmobility 	totalCO2Emission 	841.67502758634
scalar RSUExampleScenario.node[1].appl 	meanClusterNodes 	0
scalar RSUExampleScenario.node[1].appl 	meanClusterHeadUtility 	0
scalar RSUExampleScenario.node[1].appl 	NumberofCH 	0.21621621621622
scalar RSUExampleScenario.node[1].appl 	NumberofON 	0
scalar RSUExampleScenario.node[1].appl 	NumberofFN 	0.78378378378378
scalar RSUExampleScenario.node[1].veinsmobility 	startTime 	2.5
scalar RSUExampleScenario.node[1].veinsmobility 	totalTime 	447.5
scalar RSUExampleScenario.node[1].veinsmobility 	stopTime 	450
scalar RSUExampleScenario.node[1].veinsmobility 	minSpeed 	0
scalar RSUExampleScenario.node[1].veinsmobility 	maxSpeed 	13.999854998863
scalar RSUExampleScenario.node[1].veinsmobility 	totalDistance 	3080.2613034258
scalar RSUExampleScenario.node[1].veinsmobility 	totalCO2Emission 	829.89267884231
scalar RSUExampleScenario.node[10].appl 	meanClusterNodes 	0
scalar RSUExampleScenario.node[10].appl 	meanClusterHeadUtility 	0
scalar RSUExampleScenario.node[10].appl 	NumberofCH 	0.18918918918919
scalar RSUExampleScenario.node[10].appl 	NumberofON 	0
scalar RSUExampleScenario.node[10].appl 	NumberofFN 	0.81081081081081
scalar RSUExampleScenario.node[10].veinsmobility 	startTime 	24.2
scalar RSUExampleScenario.node[10].veinsmobility 	totalTime 	425.8
scalar RSUExampleScenario.node[10].veinsmobility 	stopTime 	450
scalar RSUExampleScenario.node[10].veinsmobility 	minSpeed 	0
scalar RSUExampleScenario.node[10].veinsmobility 	maxSpeed 	13.999791216655
scalar RSUExampleScenario.node[10].veinsmobility 	totalDistance 	2792.7901275122
scalar RSUExampleScenario.node[10].veinsmobility 	totalCO2Emission 	757.96670696235
scalar RSUExampleScenario.node[11].appl 	meanClusterNodes 	0
scalar RSUExampleScenario.node[11].appl 	meanClusterHeadUtility 	0
scalar RSUExampleScenario.node[11].appl 	NumberofCH 	0.18918918918919
scalar RSUExampleScenario.node[11].appl 	NumberofON 	0
scalar RSUExampleScenario.node[11].appl 	NumberofFN 	0.81081081081081
scalar RSUExampleScenario.node[11].veinsmobility 	startTime 	26.6
scalar RSUExampleScenario.node[11].veinsmobility 	totalTime 	423.4
scalar RSUExampleScenario.node[11].veinsmobility 	stopTime 	450
scalar RSUExampleScenario.node[11].veinsmobility 	minSpeed 	0
scalar RSUExampleScenario.node[11].veinsmobility 	maxSpeed 	13.999912953365
scalar RSUExampleScenario.node[11].veinsmobility 	totalDistance 	2755.1176841022
scalar RSUExampleScenario.node[11].veinsmobility 	totalCO2Emission 	755.5148625662
scalar RSUExampleScenario.node[12].appl 	meanClusterNodes 	0
scalar RSUExampleScenario.node[12].appl 	meanClusterHeadUtility 	0
scalar RSUExampleScenario.node[12].appl 	NumberofCH 	0.24324324324324
scalar RSUExampleScenario.node[12].appl 	NumberofON 	0
scalar RSUExampleScenario.node[12].appl 	NumberofFN 	0.75675675675676
scalar RSUExampleScenario.node[12].veinsmobility 	startTime 	29
scalar RSUExampleScenario.node[12].veinsmobility 	totalTime 	421
scalar RSUExampleScenario.node[12].veinsmobility 	stopTime 	450
scalar RSUExampleScenario.node[12].veinsmobility 	minSpeed 	0
scalar RSUExampleScenario.node[12].veinsmobility 	maxSpeed 	13.999716768977
scalar RSUExampleScenario.node[12].veinsmobility 	totalDistance 	2723.3432374321
scalar RSUExampleScenario.node[12].veinsmobility 	totalCO2Emission 	749.26627557816
scalar RSUExampleScenario.node[13].appl 	meanClusterNodes 	0
scalar RSUExampleScenario.node[13].appl 	meanClusterHeadUtility 	0
scalar RSUExampleScenario.node[13].appl 	NumberofCH 	0.24324324324324
scalar RSUExampleScenario.node[13].appl 	NumberofON 	0
scalar RSUExampleScenario.node[13].appl 	NumberofFN 	0.75675675675676
scalar RSUExampleScenario.node[13].veinsmobility 	startTime 	31.4
scalar RSUExampleScenario.node[13].veinsmobility 	totalTime 	418.6
scalar RSUExampleScenario.node[13].veinsmobility 	stopTime 	450
scalar RSUExampleScenario.node[13].veinsmobility 	minSpeed 	0
scalar RSUExampleScenario.node[13].veinsmobility 	maxSpeed 	13.999997221278
scalar RSUExampleScenario.node[13].veinsmobility 	totalDistance 	2680.9468654812
scalar RSUExampleScenario.node[13].veinsmobility 	totalCO2Emission 	743.89847028059
scalar RSUExampleScenario.node[14].appl 	meanClusterNodes 	0
scalar RSUExampleScenario.node[14].appl 	meanClusterHeadUtility 	0
scalar RSUExampleScenario.node[14].appl 	NumberofCH 	0.27027027027027
scalar RSUExampleScenario.node[14].appl 	NumberofON 	0
scalar RSUExampleScenario.node[14].appl 	NumberofFN 	0.72972972972973
scalar RSUExampleScenario.node[14].veinsmobility 	startTime 	33.8
scalar RSUExampleScenario.node[14].veinsmobility 	totalTime 	416.2
scalar RSUExampleScenario.node[14].veinsmobility 	stopTime 	450
scalar RSUExampleScenario.node[14].veinsmobility 	minSpeed 	0
scalar RSUExampleScenario.node[14].veinsmobility 	maxSpeed 	13.999927585453
scalar RSUExampleScenario.node[14].veinsmobility 	totalDistance 	2653.543553079
scalar RSUExampleScenario.node[14].veinsmobility 	totalCO2Emission 	734.60897670127
scalar RSUExampleScenario.node[15].appl 	meanClusterNodes 	0
scalar RSUExampleScenario.node[15].appl 	meanClusterHeadUtility 	0
scalar RSUExampleScenario.node[15].appl 	NumberofCH 	0.27027027027027
scalar RSUExampleScenario.node[15].appl 	NumberofON 	0
scalar RSUExampleScenario.node[15].appl 	NumberofFN 	0.72972972972973
scalar RSUExampleScenario.node[15].veinsmobility 	startTime 	36.2
scalar RSUExampleScenario.node[15].veinsmobility 	totalTime 	413.8
scalar RSUExampleScenario.node[15].veinsmobility 	stopTime 	450
scalar RSUExampleScenario.node[15].veinsmobility 	minSpeed 	0
scalar RSUExampleScenario.node[15].veinsmobility 	maxSpeed 	13.999947688782
scalar RSUExampleScenario.node[15].veinsmobility 	totalDistance 	2615.1524276641
scalar RSUExampleScenario.node[15].veinsmobility 	totalCO2Emission 	726.66361607481
scalar RSUExampleScenario.node[16].appl 	meanClusterNodes 	0
scalar RSUExampleScenario.node[16].appl 	meanClusterHeadUtility 	0
scalar RSUExampleScenario.node[16].appl 	NumberofCH 	0.27027027027027
scalar RSUExampleScenario.node[16].appl 	NumberofON 	0
scalar RSUExampleScenario.node[16].appl 	NumberofFN 	0.72972972972973
scalar RSUExampleScenario.node[16].veinsmobility 	startTime 	38.6
scalar RSUExampleScenario.node[16].veinsmobility 	totalTime 	411.4
scalar RSUExampleScenario.node[16].veinsmobility 	stopTime 	450
scalar RSUExampleScenario.node[16].veinsmobility 	minSpeed 	0
scalar RSUExampleScenario.node[16].veinsmobility 	maxSpeed 	13.99996571824
scalar RSUExampleScenario.node[16].veinsmobility 	totalDistance 	2583.8311107082
scalar RSUExampleScenario.node[16].veinsmobility 	totalCO2Emission 	724.12644731153
scalar RSUExampleScenario.node[17].appl 	meanClusterNodes 	0
scalar RSUExampleScenario.node[17].appl 	meanClusterHeadUtility 	0
scalar RSUExampleScenario.node[17].appl 	NumberofCH 	0.24324324324324
scalar RSUExampleScenario.node[17].appl 	NumberofON 	0
scalar RSUExampleScenario.node[17].appl 	NumberofFN 	0.75675675675676
scalar RSUExampleScenario.node[17].veinsmobility 	startTime 	41
scalar RSUExampleScenario.node[17].veinsmobility 	totalTime 	409
scalar RSUExampleScenario.node[17].veinsmobility 	stopTime 	450
scalar RSUExampleScenario.node[17].veinsmobility 	minSpeed 	0
scalar RSUExampleScenario.node[17].veinsmobility 	maxSpeed 	13.999662100731
scalar RSUExampleScenario.node[17].veinsmobility 	totalDistance 	2538.6763485819
scalar RSUExampleScenario.node[17].veinsmobility 	totalCO2Emission 	716.99751203346
scalar RSUExampleScenario.node[18].appl 	meanClusterNodes 	0
scalar RSUExampleScenario.node[18].appl 	meanClusterHeadUtility 	0
scalar RSUExampleScenario.node[18].appl 	NumberofCH 	0.21621621621622
scalar RSUExampleScenario.node[18].appl 	NumberofON 	0
scalar RSUExampleScenario.node[18].appl 	NumberofFN 	0.78378378378378
scalar RSUExampleScenario.node[18].veinsmobility 	startTime 	43.4
scalar RSUExampleScenario.node[18].veinsmobility 	totalTime 	406.6
scalar RSUExampleScenario.node[18].veinsmobility 	stopTime 	450
scalar RSUExampleScenario.node[18].veinsmobility 	minSpeed 	0
scalar RSUExampleScenario.node[18].veinsmobility 	maxSpeed 	13.999955753807
scalar RSUExampleScenario.node[18].veinsmobility 	totalDistance 	2509.4053546559
scalar RSUExampleScenario.node[18].veinsmobility 	totalCO2Emission 	713.37148455733
scalar RSUExampleScenario.node[19].appl 	meanClusterNodes 	0
scalar RSUExampleScenario.node[19].appl 	meanClusterHeadUtility 	0
scalar RSUExampleScenario.node[19].appl 	NumberofCH 	0.24324324324324
scalar RSUExampleScenario.node[19].appl 	NumberofON 	0
scalar RSUExampleScenario.node[19].appl 	NumberofFN 	0.75675675675676
scalar RSUExampleScenario.node[19].veinsmobility 	startTime 	45.8
scalar RSUExampleScenario.node[19].veinsmobility 	totalTime 	404.2
scalar RSUExampleScenario.node[19].veinsmobility 	stopTime 	450
scalar RSUExampleScenario.node[19].veinsmobility 	minSpeed 	0
scalar RSUExampleScenario.node[19].veinsmobility 	maxSpeed 	13.999668875977
scalar RSUExampleScenario.node[19].veinsmobility 	totalDistance 	2470.2775303544
scalar RSUExampleScenario.node[19].veinsmobility 	totalCO2Emission 	706.52148932646
scalar RSUExampleScenario.node[2].appl 	meanClusterNodes 	0
scalar RSUExampleScenario.node[2].appl 	meanClusterHeadUtility 	0
scalar RSUExampleScenario.node[2].appl 	NumberofCH 	0.27027027027027
scalar RSUExampleScenario.node[2].appl 	NumberofON 	0
scalar RSUExampleScenario.node[2].appl 	NumberofFN 	0.72972972972973
scalar RSUExampleScenario.node[2].veinsmobility 	startTime 	4.9
scalar RSUExampleScenario.node[2].veinsmobility 	totalTime 	445.1
scalar RSUExampleScenario.node[2].veinsmobility 	stopTime 	450
scalar RSUExampleScenario.node[2].veinsmobility 	minSpeed 	0
scalar RSUExampleScenario.node[2].veinsmobility 	maxSpeed 	13.99999823695
scalar RSUExampleScenario.node[2].veinsmobility 	totalDistance 	3037.9809154439
scalar RSUExampleScenario.node[2].veinsmobility 	totalCO2Emission 	824.59632707054
scalar RSUExampleScenario.node[20].appl 	meanClusterNodes 	0
scalar RSUExampleScenario.node[20].appl 	meanClusterHeadUtility 	0
scalar RSUExampleScenario.node[20].appl 	NumberofCH 	0.27027027027027
scalar RSUExampleScenario.node[20].appl 	NumberofON 	0
scalar RSUExampleScenario.node[20].appl 	NumberofFN 	0.72972972972973
scalar RSUExampleScenario.node[20].veinsmobility 	startTime 	48.3
scalar RSUExampleScenario.node[20].veinsmobility 	totalTime 	401.7
scalar RSUExampleScenario.node[20].veinsmobility 	stopTime 	450
scalar RSUExampleScenario.node[20].veinsmobility 	minSpeed 	0
scalar RSUExampleScenario.node[20].veinsmobility 	maxSpeed 	13.999966380685
scalar RSUExampleScenario.node[20].veinsmobility 	totalDistance 	2442.5276871428
scalar RSUExampleScenario.node[20].veinsmobility 	totalCO2Emission 	697.13594194752
scalar RSUExampleScenario.node[21].appl 	meanClusterNodes 	0
scalar RSUExampleScenario.node[21].appl 	meanClusterHeadUtility 	0
scalar RSUExampleScenario.node[21].appl 	NumberofCH 	0.27027027027027
scalar RSUExampleScenario.node[21].appl 	NumberofON 	0
scalar RSUExampleScenario.node[21].appl 	NumberofFN 	0.72972972972973
scalar RSUExampleScenario.node[21].veinsmobility 	startTime 	50.7
scalar RSUExampleScenario.node[21].veinsmobility 	totalTime 	399.3
scalar RSUExampleScenario.node[21].veinsmobility 	stopTime 	450
scalar RSUExampleScenario.node[21].veinsmobility 	minSpeed 	0
scalar RSUExampleScenario.node[21].veinsmobility 	maxSpeed 	13.999997744521
scalar RSUExampleScenario.node[21].veinsmobility 	totalDistance 	2402.6320189979
scalar RSUExampleScenario.node[21].veinsmobility 	totalCO2Emission 	699.25486931116
scalar RSUExampleScenario.node[22].appl 	meanClusterNodes 	0
scalar RSUExampleScenario.node[22].appl 	meanClusterHeadUtility 	0
scalar RSUExampleScenario.node[22].appl 	NumberofCH 	0.27027027027027
scalar RSUExampleScenario.node[22].appl 	NumberofON 	0
scalar RSUExampleScenario.node[22].appl 	NumberofFN 	0.72972972972973
scalar RSUExampleScenario.node[22].veinsmobility 	startTime 	53.1
scalar RSUExampleScenario.node[22].veinsmobility 	totalTime 	396.9
scalar RSUExampleScenario.node[22].veinsmobility 	stopTime 	450
scalar RSUExampleScenario.node[22].veinsmobility 	minSpeed 	0
scalar RSUExampleScenario.node[22].veinsmobility 	maxSpeed 	13.999541920763
scalar RSUExampleScenario.node[22].veinsmobility 	totalDistance 	2372.8617357776
scalar RSUExampleScenario.node[22].veinsmobility 	totalCO2Emission 	690.52442627909
scalar RSUExampleScenario.node[23].appl 	meanClusterNodes 	0
scalar RSUExampleScenario.node[23].appl 	meanClusterHeadUtility 	0
scalar RSUExampleScenario.node[23].appl 	NumberofCH 	0.27027027027027
scalar RSUExampleScenario.node[23].appl 	NumberofON 	0
scalar RSUExampleScenario.node[23].appl 	NumberofFN 	0.72972972972973
scalar RSUExampleScenario.node[23].veinsmobility 	startTime 	55.5
scalar RSUExampleScenario.node[23].veinsmobility 	totalTime 	394.5
scalar RSUExampleScenario.node[23].veinsmobility 	stopTime 	450
scalar RSUExampleScenario.node[23].veinsmobility 	minSpeed 	0
scalar RSUExampleScenario.node[23].veinsmobility 	maxSpeed 	13.999755092149
scalar RSUExampleScenario.node[23].veinsmobility 	totalDistance 	2335.0659610036
scalar RSUExampleScenario.node[23].veinsmobility 	totalCO2Emission 	682.74292738907
scalar RSUExampleScenario.node[24].appl 	meanClusterNodes 	0
scalar RSUExampleScenario.node[24].appl 	meanClusterHeadUtility 	0
scalar RSUExampleScenario.node[24].appl 	NumberofCH 	0.24324324324324
scalar RSUExampleScenario.node[24].appl 	NumberofON 	0
scalar RSUExampleScenario.node[24].appl 	NumberofFN 	0.75675675675676
scalar RSUExampleScenario.node[24].veinsmobility 	startTime 	57.9
scalar RSUExampleScenario.node[24].veinsmobility 	totalTime 	392.1
scalar RSUExampleScenario.node[24].veinsmobility 	stopTime 	450
scalar RSUExampleScenario.node[24].veinsmobility 	minSpeed 	0
scalar RSUExampleScenario.node[24].veinsmobility 	maxSpeed 	13.999962602151
scalar RSUExampleScenario.node[24].veinsmobility 	totalDistance 	2305.9904233309
scalar RSUExampleScenario.node[24].veinsmobility 	totalCO2Emission 	677.26807950604
scalar RSUExampleScenario.node[25].appl 	meanClusterNodes 	0
scalar RSUExampleScenario.node[25].appl 	meanClusterHeadUtility 	0
scalar RSUExampleScenario.node[25].appl 	NumberofCH 	0.27027027027027
scalar RSUExampleScenario.node[25].appl 	NumberofON 	0
scalar RSUExampleScenario.node[25].appl 	NumberofFN 	0.72972972972973
scalar RSUExampleScenario.node[25].veinsmobility 	startTime 	60.3
scalar RSUExampleScenario.node[25].veinsmobility 	totalTime 	389.7
scalar RSUExampleScenario.node[25].veinsmobility 	stopTime 	450
scalar RSUExampleScenario.node[25].veinsmobility 	minSpeed 	0
scalar RSUExampleScenario.node[25].veinsmobility 	maxSpeed 	13.999927678467
scalar RSUExampleScenario.node[25].veinsmobility 	totalDistance 	2268.2744272851
scalar RSUExampleScenario.node[25].veinsmobility 	totalCO2Emission 	671.93006066517
scalar RSUExampleScenario.node[26].appl 	meanClusterNodes 	0
scalar RSUExampleScenario.node[26].appl 	meanClusterHeadUtility 	0
scalar RSUExampleScenario.node[26].appl 	NumberofCH 	0.27027027027027
scalar RSUExampleScenario.node[26].appl 	NumberofON 	0
scalar RSUExampleScenario.node[26].appl 	NumberofFN 	0.72972972972973
scalar RSUExampleScenario.node[26].veinsmobility 	startTime 	62.7
scalar RSUExampleScenario.node[26].veinsmobility 	totalTime 	387.3
scalar RSUExampleScenario.node[26].veinsmobility 	stopTime 	450
scalar RSUExampleScenario.node[26].veinsmobility 	minSpeed 	0
scalar RSUExampleScenario.node[26].veinsmobility 	maxSpeed 	13.999996273103
scalar RSUExampleScenario.node[26].veinsmobility 	totalDistance 	2238.6167618621
scalar RSUExampleScenario.node[26].veinsmobility 	totalCO2Emission 	664.47015217734
scalar RSUExampleScenario.node[27].appl 	meanClusterNodes 	0
scalar RSUExampleScenario.node[27].appl 	meanClusterHeadUtility 	0
scalar RSUExampleScenario.node[27].appl 	NumberofCH 	0.21621621621622
scalar RSUExampleScenario.node[27].appl 	NumberofON 	0
scalar RSUExampleScenario.node[27].appl 	NumberofFN 	0.78378378378378
scalar RSUExampleScenario.node[27].veinsmobility 	startTime 	65.1
scalar RSUExampleScenario.node[27].veinsmobility 	totalTime 	384.9
scalar RSUExampleScenario.node[27].veinsmobility 	stopTime 	450
scalar RSUExampleScenario.node[27].veinsmobility 	minSpeed 	0
scalar RSUExampleScenario.node[27].veinsmobility 	maxSpeed 	13.999901196766
scalar RSUExampleScenario.node[27].veinsmobility 	totalDistance 	2201.2025074391
scalar RSUExampleScenario.node[27].veinsmobility 	totalCO2Emission 	662.55028162794
scalar RSUExampleScenario.node[28].appl 	meanClusterNodes 	0
scalar RSUExampleScenario.node[28].appl 	meanClusterHeadUtility 	0
scalar RSUExampleScenario.node[28].appl 	NumberofCH 	0.21621621621622
scalar RSUExampleScenario.node[28].appl 	NumberofON 	0
scalar RSUExampleScenario.node[28].appl 	NumberofFN 	0.78378378378378
scalar RSUExampleScenario.node[28].veinsmobility 	startTime 	67.5
scalar RSUExampleScenario.node[28].veinsmobility 	totalTime 	382.5
scalar RSUExampleScenario.node[28].veinsmobility 	stopTime 	450
scalar RSUExampleScenario.node[28].veinsmobility 	minSpeed 	0
scalar RSUExampleScenario.node[28].veinsmobility 	maxSpeed 	13.99995829992
scalar RSUExampleScenario.node[28].veinsmobility 	totalDistance 	2168.656792874
scalar RSUExampleScenario.node[28].veinsmobility 	totalCO2Emission 	656.67541105035
scalar RSUExampleScenario.node[29].appl 	meanClusterNodes 	0
scalar RSUExampleScenario.node[29].appl 	meanClusterHeadUtility 	0
scalar RSUExampleScenario.node[29].appl 	NumberofCH 	0.24324324324324
scalar RSUExampleScenario.node[29].appl 	NumberofON 	0
scalar RSUExampleScenario.node[29].appl 	NumberofFN 	0.75675675675676
scalar RSUExampleScenario.node[29].veinsmobility 	startTime 	69.9
scalar RSUExampleScenario.node[29].veinsmobility 	totalTime 	380.1
scalar RSUExampleScenario.node[29].veinsmobility 	stopTime 	450
scalar RSUExampleScenario.node[29].veinsmobility 	minSpeed 	0
scalar RSUExampleScenario.node[29].veinsmobility 	maxSpeed 	13.999802413811
scalar RSUExampleScenario.node[29].veinsmobility 	totalDistance 	2133.2894653929
scalar RSUExampleScenario.node[29].veinsmobility 	totalCO2Emission 	647.09209604674
scalar RSUExampleScenario.node[3].appl 	meanClusterNodes 	0
scalar RSUExampleScenario.node[3].appl 	meanClusterHeadUtility 	0
scalar RSUExampleScenario.node[3].appl 	NumberofCH 	0.24324324324324
scalar RSUExampleScenario.node[3].appl 	NumberofON 	0
scalar RSUExampleScenario.node[3].appl 	NumberofFN 	0.75675675675676
scalar RSUExampleScenario.node[3].veinsmobility 	startTime 	7.3
scalar RSUExampleScenario.node[3].veinsmobility 	totalTime 	442.7
scalar RSUExampleScenario.node[3].veinsmobility 	stopTime 	450
scalar RSUExampleScenario.node[3].veinsmobility 	minSpeed 	0
scalar RSUExampleScenario.node[3].veinsmobility 	maxSpeed 	13.999843502417
scalar RSUExampleScenario.node[3].veinsmobility 	totalDistance 	2990.7189193083
scalar RSUExampleScenario.node[3].veinsmobility 	totalCO2Emission 	816.7651450709
scalar RSUExampleScenario.node[30].appl 	meanClusterNodes 	0
scalar RSUExampleScenario.node[30].appl 	meanClusterHeadUtility 	0
scalar RSUExampleScenario.node[30].appl 	NumberofCH 	0.27027027027027
scalar RSUExampleScenario.node[30].appl 	NumberofON 	0
scalar RSUExampleScenario.node[30].appl 	NumberofFN 	0.72972972972973
scalar RSUExampleScenario.node[30].veinsmobility 	startTime 	72.4
scalar RSUExampleScenario.node[30].veinsmobility 	totalTime 	377.6
scalar RSUExampleScenario.node[30].veinsmobility 	stopTime 	450
scalar RSUExampleScenario.node[30].veinsmobility 	minSpeed 	0
scalar RSUExampleScenario.node[30].veinsmobility 	maxSpeed 	13.999635031165
scalar RSUExampleScenario.node[30].veinsmobility 	totalDistance 	2103.2059627578
scalar RSUExampleScenario.node[30].veinsmobility 	totalCO2Emission 	644.19089629517
scalar RSUExampleScenario.node[31].appl 	meanClusterNodes 	0
scalar RSUExampleScenario.node[31].appl 	meanClusterHeadUtility 	0
scalar RSUExampleScenario.node[31].appl 	NumberofCH 	0.27027027027027
scalar RSUExampleScenario.node[31].appl 	NumberofON 	0
scalar RSUExampleScenario.node[31].appl 	NumberofFN 	0.72972972972973
scalar RSUExampleScenario.node[31].veinsmobility 	startTime 	74.8
scalar RSUExampleScenario.node[31].veinsmobility 	totalTime 	375.2
scalar RSUExampleScenario.node[31].veinsmobility 	stopTime 	450
scalar RSUExampleScenario.node[31].veinsmobility 	minSpeed 	0
scalar RSUExampleScenario.node[31].veinsmobility 	maxSpeed 	13.999827671445
scalar RSUExampleScenario.node[31].veinsmobility 	totalDistance 	2066.3023130341
scalar RSUExampleScenario.node[31].veinsmobility 	totalCO2Emission 	637.65641685014
scalar RSUExampleScenario.node[32].appl 	meanClusterNodes 	0
scalar RSUExampleScenario.node[32].appl 	meanClusterHeadUtility 	0
scalar RSUExampleScenario.node[32].appl 	NumberofCH 	0.27027027027027
scalar RSUExampleScenario.node[32].appl 	NumberofON 	0
scalar RSUExampleScenario.node[32].appl 	NumberofFN 	0.72972972972973
scalar RSUExampleScenario.node[32].veinsmobility 	startTime 	77.2
scalar RSUExampleScenario.node[32].veinsmobility 	totalTime 	372.8
scalar RSUExampleScenario.node[32].veinsmobility 	stopTime 	450
scalar RSUExampleScenario.node[32].veinsmobility 	minSpeed 	0
scalar RSUExampleScenario.node[32].veinsmobility 	maxSpeed 	13.999965904539
scalar RSUExampleScenario.node[32].veinsmobility 	totalDistance 	2030.6648964835
scalar RSUExampleScenario.node[32].veinsmobility 	totalCO2Emission 	626.51831755635
scalar RSUExampleScenario.node[33].appl 	meanClusterNodes 	0
scalar RSUExampleScenario.node[33].appl 	meanClusterHeadUtility 	0
scalar RSUExampleScenario.node[33].appl 	NumberofCH 	0.24324324324324
scalar RSUExampleScenario.node[33].appl 	NumberofON 	0
scalar RSUExampleScenario.node[33].appl 	NumberofFN 	0.75675675675676
scalar RSUExampleScenario.node[33].veinsmobility 	startTime 	79.6
scalar RSUExampleScenario.node[33].veinsmobility 	totalTime 	370.4
scalar RSUExampleScenario.node[33].veinsmobility 	stopTime 	450
scalar RSUExampleScenario.node[33].veinsmobility 	minSpeed 	0
scalar RSUExampleScenario.node[33].veinsmobility 	maxSpeed 	13.999805794442
scalar RSUExampleScenario.node[33].veinsmobility 	totalDistance 	1997.8317293304
scalar RSUExampleScenario.node[33].veinsmobility 	totalCO2Emission 	627.95089167363
scalar RSUExampleScenario.node[34].appl 	meanClusterNodes 	0
scalar RSUExampleScenario.node[34].appl 	meanClusterHeadUtility 	0
scalar RSUExampleScenario.node[34].appl 	NumberofCH 	0.24324324324324
scalar RSUExampleScenario.node[34].appl 	NumberofON 	0
scalar RSUExampleScenario.node[34].appl 	NumberofFN 	0.75675675675676
scalar RSUExampleScenario.node[34].veinsmobility 	startTime 	82
scalar RSUExampleScenario.node[34].veinsmobility 	totalTime 	368
scalar RSUExampleScenario.node[34].veinsmobility 	stopTime 	450
scalar RSUExampleScenario.node[34].veinsmobility 	minSpeed 	0
scalar RSUExampleScenario.node[34].veinsmobility 	maxSpeed 	13.999733161028
scalar RSUExampleScenario.node[34].veinsmobility 	totalDistance 	1964.3848037418
scalar RSUExampleScenario.node[34].veinsmobility 	totalCO2Emission 	618.9247211508
scalar RSUExampleScenario.node[35].appl 	meanClusterNodes 	0
scalar RSUExampleScenario.node[35].appl 	meanClusterHeadUtility 	0
scalar RSUExampleScenario.node[35].appl 	NumberofCH 	0.24324324324324
scalar RSUExampleScenario.node[35].appl 	NumberofON 	0
scalar RSUExampleScenario.node[35].appl 	NumberofFN 	0.75675675675676
scalar RSUExampleScenario.node[35].veinsmobility 	startTime 	84.4
scalar RSUExampleScenario.node[35].veinsmobility 	totalTime 	365.6
scalar RSUExampleScenario.node[35].veinsmobility 	stopTime 	450
scalar RSUExampleScenario.node[35].veinsmobility 	minSpeed 	0
scalar RSUExampleScenario.node[35].veinsmobility 	maxSpeed 	13.999728355289
scalar RSUExampleScenario.node[35].veinsmobility 	totalDistance 	1930.6648488497
scalar RSUExampleScenario.node[35].veinsmobility 	totalCO2Emission 	612.63572312502
scalar RSUExampleScenario.node[36].appl 	meanClusterNodes 	0
scalar RSUExampleScenario.node[36].appl 	meanClusterHeadUtility 	0
scalar RSUExampleScenario.node[36].appl 	NumberofCH 	0.27027027027027
scalar RSUExampleScenario.node[36].appl 	NumberofON 	0
scalar RSUExampleScenario.node[36].appl 	NumberofFN 	0.72972972972973
scalar RSUExampleScenario.node[36].veinsmobility 	startTime 	86.8
scalar RSUExampleScenario.node[36].veinsmobility 	totalTime 	363.2
scalar RSUExampleScenario.node[36].veinsmobility 	stopTime 	450
scalar RSUExampleScenario.node[36].veinsmobility 	minSpeed 	0
scalar RSUExampleScenario.node[36].veinsmobility 	maxSpeed 	13.999920033561
scalar RSUExampleScenario.node[36].veinsmobility 	totalDistance 	1897.515632097
scalar RSUExampleScenario.node[36].veinsmobility 	totalCO2Emission 	610.92994677229
scalar RSUExampleScenario.node[37].appl 	meanClusterNodes 	0
scalar RSUExampleScenario.node[37].appl 	meanClusterHeadUtility 	0
scalar RSUExampleScenario.node[37].appl 	NumberofCH 	0.24324324324324
scalar RSUExampleScenario.node[37].appl 	NumberofON 	0
scalar RSUExampleScenario.node[37].appl 	NumberofFN 	0.75675675675676
scalar RSUExampleScenario.node[37].veinsmobility 	startTime 	89.2
scalar RSUExampleScenario.node[37].veinsmobility 	totalTime 	360.8
scalar RSUExampleScenario.node[37].veinsmobility 	stopTime 	450
scalar RSUExampleScenario.node[37].veinsmobility 	minSpeed 	0
scalar RSUExampleScenario.node[37].veinsmobility 	maxSpeed 	13.999932566443
scalar RSUExampleScenario.node[37].veinsmobility 	totalDistance 	1864.2502380641
scalar RSUExampleScenario.node[37].veinsmobility 	totalCO2Emission 	602.92221735724
scalar RSUExampleScenario.node[38].appl 	meanClusterNodes 	0
scalar RSUExampleScenario.node[38].appl 	meanClusterHeadUtility 	0
scalar RSUExampleScenario.node[38].appl 	NumberofCH 	0.21621621621622
scalar RSUExampleScenario.node[38].appl 	NumberofON 	0
scalar RSUExampleScenario.node[38].appl 	NumberofFN 	0.78378378378378
scalar RSUExampleScenario.node[38].veinsmobility 	startTime 	91.6
scalar RSUExampleScenario.node[38].veinsmobility 	totalTime 	358.4
scalar RSUExampleScenario.node[38].veinsmobility 	stopTime 	450
scalar RSUExampleScenario.node[38].veinsmobility 	minSpeed 	0
scalar RSUExampleScenario.node[38].veinsmobility 	maxSpeed 	13.999727439168
scalar RSUExampleScenario.node[38].veinsmobility 	totalDistance 	1831.6027160727
scalar RSUExampleScenario.node[38].veinsmobility 	totalCO2Emission 	600.0959818051
scalar RSUExampleScenario.node[39].appl 	meanClusterNodes 	0
scalar RSUExampleScenario.node[39].appl 	meanClusterHeadUtility 	0
scalar RSUExampleScenario.node[39].appl 	NumberofCH 	0.27027027027027
scalar RSUExampleScenario.node[39].appl 	NumberofON 	0
scalar RSUExampleScenario.node[39].appl 	NumberofFN 	0.72972972972973
scalar RSUExampleScenario.node[39].veinsmobility 	startTime 	94
scalar RSUExampleScenario.node[39].veinsmobility 	totalTime 	356
scalar RSUExampleScenario.node[39].veinsmobility 	stopTime 	450
scalar RSUExampleScenario.node[39].veinsmobility 	minSpeed 	0
scalar RSUExampleScenario.node[39].veinsmobility 	maxSpeed 	13.999333247019
scalar RSUExampleScenario.node[39].veinsmobility 	totalDistance 	1795.7171477158
scalar RSUExampleScenario.node[39].veinsmobility 	totalCO2Emission 	592.0356971679
scalar RSUExampleScenario.node[4].appl 	meanClusterNodes 	0
scalar RSUExampleScenario.node[4].appl 	meanClusterHeadUtility 	0
scalar RSUExampleScenario.node[4].appl 	NumberofCH 	0.27027027027027
scalar RSUExampleScenario.node[4].appl 	NumberofON 	0
scalar RSUExampleScenario.node[4].appl 	NumberofFN 	0.72972972972973
scalar RSUExampleScenario.node[4].veinsmobility 	startTime 	9.7
scalar RSUExampleScenario.node[4].veinsmobility 	totalTime 	440.3
scalar RSUExampleScenario.node[4].veinsmobility 	stopTime 	450
scalar RSUExampleScenario.node[4].veinsmobility 	minSpeed 	0
scalar RSUExampleScenario.node[4].veinsmobility 	maxSpeed 	13.999923009176
scalar RSUExampleScenario.node[4].veinsmobility 	totalDistance 	2949.6965639783
scalar RSUExampleScenario.node[4].veinsmobility 	totalCO2Emission 	797.35099220441
scalar RSUExampleScenario.node[40].appl 	meanClusterNodes 	0
scalar RSUExampleScenario.node[40].appl 	meanClusterHeadUtility 	0
scalar RSUExampleScenario.node[40].appl 	NumberofCH 	0.27027027027027
scalar RSUExampleScenario.node[40].appl 	NumberofON 	0
scalar RSUExampleScenario.node[40].appl 	NumberofFN 	0.72972972972973
scalar RSUExampleScenario.node[40].veinsmobility 	startTime 	96.5
scalar RSUExampleScenario.node[40].veinsmobility 	totalTime 	353.5
scalar RSUExampleScenario.node[40].veinsmobility 	stopTime 	450
scalar RSUExampleScenario.node[40].veinsmobility 	minSpeed 	0
scalar RSUExampleScenario.node[40].veinsmobility 	maxSpeed 	13.999992660498
scalar RSUExampleScenario.node[40].veinsmobility 	totalDistance 	1761.7935668175
scalar RSUExampleScenario.node[40].veinsmobility 	totalCO2Emission 	586.78809052562
scalar RSUExampleScenario.node[41].appl 	meanClusterNodes 	0
scalar RSUExampleScenario.node[41].appl 	meanClusterHeadUtility 	0
scalar RSUExampleScenario.node[41].appl 	NumberofCH 	0.24324324324324
scalar RSUExampleScenario.node[41].appl 	NumberofON 	0
scalar RSUExampleScenario.node[41].appl 	NumberofFN 	0.75675675675676
scalar RSUExampleScenario.node[41].veinsmobility 	startTime 	98.9
scalar RSUExampleScenario.node[41].veinsmobility 	totalTime 	351.1
scalar RSUExampleScenario.node[41].veinsmobility 	stopTime 	450
scalar RSUExampleScenario.node[41].veinsmobility 	minSpeed 	0
scalar RSUExampleScenario.node[41].veinsmobility 	maxSpeed 	13.999990084209
scalar RSUExampleScenario.node[41].veinsmobility 	totalDistance 	1729.0988390864
scalar RSUExampleScenario.node[41].veinsmobility 	totalCO2Emission 	581.19717646024
scalar RSUExampleScenario.node[42].appl 	meanClusterNodes 	0
scalar RSUExampleScenario.node[42].appl 	meanClusterHeadUtility 	0
scalar RSUExampleScenario.node[42].appl 	NumberofCH 	0.27027027027027
scalar RSUExampleScenario.node[42].appl 	NumberofON 	0
scalar RSUExampleScenario.node[42].appl 	NumberofFN 	0.72972972972973
scalar RSUExampleScenario.node[42].veinsmobility 	startTime 	101.3
scalar RSUExampleScenario.node[42].veinsmobility 	totalTime 	348.7
scalar RSUExampleScenario.node[42].veinsmobility 	stopTime 	450
scalar RSUExampleScenario.node[42].veinsmobility 	minSpeed 	0
scalar RSUExampleScenario.node[42].veinsmobility 	maxSpeed 	13.999985551457
scalar RSUExampleScenario.node[42].veinsmobility 	totalDistance 	1695.2050044665
scalar RSUExampleScenario.node[42].veinsmobility 	totalCO2Emission 	576.24828832512
scalar RSUExampleScenario.node[43].appl 	meanClusterNodes 	0
scalar RSUExampleScenario.node[43].appl 	meanClusterHeadUtility 	0
scalar RSUExampleScenario.node[43].appl 	NumberofCH 	0.24324324324324
scalar RSUExampleScenario.node[43].appl 	NumberofON 	0
scalar RSUExampleScenario.node[43].appl 	NumberofFN 	0.75675675675676
scalar RSUExampleScenario.node[43].veinsmobility 	startTime 	103.7
scalar RSUExampleScenario.node[43].veinsmobility 	totalTime 	346.3
scalar RSUExampleScenario.node[43].veinsmobility 	stopTime 	450
scalar RSUExampleScenario.node[43].veinsmobility 	minSpeed 	0
scalar RSUExampleScenario.node[43].veinsmobility 	maxSpeed 	13.999726507338
scalar RSUExampleScenario.node[43].veinsmobility 	totalDistance 	1662.5755375629
scalar RSUExampleScenario.node[43].veinsmobility 	totalCO2Emission 	574.16534534824
scalar RSUExampleScenario.node[44].appl 	meanClusterNodes 	0
scalar RSUExampleScenario.node[44].appl 	meanClusterHeadUtility 	0
scalar RSUExampleScenario.node[44].appl 	NumberofCH 	0.27027027027027
scalar RSUExampleScenario.node[44].appl 	NumberofON 	0
scalar RSUExampleScenario.node[44].appl 	NumberofFN 	0.72972972972973
scalar RSUExampleScenario.node[44].veinsmobility 	startTime 	106.1
scalar RSUExampleScenario.node[44].veinsmobility 	totalTime 	343.9
scalar RSUExampleScenario.node[44].veinsmobility 	stopTime 	450
scalar RSUExampleScenario.node[44].veinsmobility 	minSpeed 	0
scalar RSUExampleScenario.node[44].veinsmobility 	maxSpeed 	13.999982348953
scalar RSUExampleScenario.node[44].veinsmobility 	totalDistance 	1625.7981847381
scalar RSUExampleScenario.node[44].veinsmobility 	totalCO2Emission 	565.11473343183
scalar RSUExampleScenario.node[45].appl 	meanClusterNodes 	0
scalar RSUExampleScenario.node[45].appl 	meanClusterHeadUtility 	0
scalar RSUExampleScenario.node[45].appl 	NumberofCH 	0.27027027027027
scalar RSUExampleScenario.node[45].appl 	NumberofON 	0
scalar RSUExampleScenario.node[45].appl 	NumberofFN 	0.72972972972973
scalar RSUExampleScenario.node[45].veinsmobility 	startTime 	108.5
scalar RSUExampleScenario.node[45].veinsmobility 	totalTime 	341.5
scalar RSUExampleScenario.node[45].veinsmobility 	stopTime 	450
scalar RSUExampleScenario.node[45].veinsmobility 	minSpeed 	0
scalar RSUExampleScenario.node[45].veinsmobility 	maxSpeed 	13.999872297409
scalar RSUExampleScenario.node[45].veinsmobility 	totalDistance 	1593.9918894332
scalar RSUExampleScenario.node[45].veinsmobility 	totalCO2Emission 	559.82735307335
scalar RSUExampleScenario.node[46].appl 	meanClusterNodes 	0
scalar RSUExampleScenario.node[46].appl 	meanClusterHeadUtility 	0
scalar RSUExampleScenario.node[46].appl 	NumberofCH 	0.24324324324324
scalar RSUExampleScenario.node[46].appl 	NumberofON 	0
scalar RSUExampleScenario.node[46].appl 	NumberofFN 	0.75675675675676
scalar RSUExampleScenario.node[46].veinsmobility 	startTime 	110.9
scalar RSUExampleScenario.node[46].veinsmobility 	totalTime 	339.1
scalar RSUExampleScenario.node[46].veinsmobility 	stopTime 	450
scalar RSUExampleScenario.node[46].veinsmobility 	minSpeed 	0
scalar RSUExampleScenario.node[46].veinsmobility 	maxSpeed 	13.999789343551
scalar RSUExampleScenario.node[46].veinsmobility 	totalDistance 	1560.1235632119
scalar RSUExampleScenario.node[46].veinsmobility 	totalCO2Emission 	555.1447911707
scalar RSUExampleScenario.node[47].appl 	meanClusterNodes 	0
scalar RSUExampleScenario.node[47].appl 	meanClusterHeadUtility 	0
scalar RSUExampleScenario.node[47].appl 	NumberofCH 	0.27027027027027
scalar RSUExampleScenario.node[47].appl 	NumberofON 	0
scalar RSUExampleScenario.node[47].appl 	NumberofFN 	0.72972972972973
scalar RSUExampleScenario.node[47].veinsmobility 	startTime 	113.3
scalar RSUExampleScenario.node[47].veinsmobility 	totalTime 	336.7
scalar RSUExampleScenario.node[47].veinsmobility 	stopTime 	450
scalar RSUExampleScenario.node[47].veinsmobility 	minSpeed 	0
scalar RSUExampleScenario.node[47].veinsmobility 	maxSpeed 	13.999885758278
scalar RSUExampleScenario.node[47].veinsmobility 	totalDistance 	1528.1805962593
scalar RSUExampleScenario.node[47].veinsmobility 	totalCO2Emission 	547.54250740547
scalar RSUExampleScenario.node[48].appl 	meanClusterNodes 	0
scalar RSUExampleScenario.node[48].appl 	meanClusterHeadUtility 	0
scalar RSUExampleScenario.node[48].appl 	NumberofCH 	0.27027027027027
scalar RSUExampleScenario.node[48].appl 	NumberofON 	0
scalar RSUExampleScenario.node[48].appl 	NumberofFN 	0.72972972972973
scalar RSUExampleScenario.node[48].veinsmobility 	startTime 	115.7
scalar RSUExampleScenario.node[48].veinsmobility 	totalTime 	334.3
scalar RSUExampleScenario.node[48].veinsmobility 	stopTime 	450
scalar RSUExampleScenario.node[48].veinsmobility 	minSpeed 	0
scalar RSUExampleScenario.node[48].veinsmobility 	maxSpeed 	13.999477714591
scalar RSUExampleScenario.node[48].veinsmobility 	totalDistance 	1494.2373463564
scalar RSUExampleScenario.node[48].veinsmobility 	totalCO2Emission 	539.12183185298
scalar RSUExampleScenario.node[49].appl 	meanClusterNodes 	0
scalar RSUExampleScenario.node[49].appl 	meanClusterHeadUtility 	0
scalar RSUExampleScenario.node[49].appl 	NumberofCH 	0.27027027027027
scalar RSUExampleScenario.node[49].appl 	NumberofON 	0
scalar RSUExampleScenario.node[49].appl 	NumberofFN 	0.72972972972973
scalar RSUExampleScenario.node[49].veinsmobility 	startTime 	118.1
scalar RSUExampleScenario.node[49].veinsmobility 	totalTime 	331.9
scalar RSUExampleScenario.node[49].veinsmobility 	stopTime 	450
scalar RSUExampleScenario.node[49].veinsmobility 	minSpeed 	0
scalar RSUExampleScenario.node[49].veinsmobility 	maxSpeed 	13.999949857059
scalar RSUExampleScenario.node[49].veinsmobility 	totalDistance 	1459.8847089128
scalar RSUExampleScenario.node[49].veinsmobility 	totalCO2Emission 	536.24519469591
scalar RSUExampleScenario.node[5].appl 	meanClusterNodes 	0
scalar RSUExampleScenario.node[5].appl 	meanClusterHeadUtility 	0
scalar RSUExampleScenario.node[5].appl 	NumberofCH 	0.27027027027027
scalar RSUExampleScenario.node[5].appl 	NumberofON 	0
scalar RSUExampleScenario.node[5].appl 	NumberofFN 	0.72972972972973
scalar RSUExampleScenario.node[5].veinsmobility 	startTime 	12.1
scalar RSUExampleScenario.node[5].veinsmobility 	totalTime 	437.9
scalar RSUExampleScenario.node[5].veinsmobility 	stopTime 	450
scalar RSUExampleScenario.node[5].veinsmobility 	minSpeed 	0
scalar RSUExampleScenario.node[5].veinsmobility 	maxSpeed 	13.999964740553
scalar RSUExampleScenario.node[5].veinsmobility 	totalDistance 	2913.1681598745
scalar RSUExampleScenario.node[5].veinsmobility 	totalCO2Emission 	780.82309941079
scalar RSUExampleScenario.node[50].appl 	meanClusterNodes 	0
scalar RSUExampleScenario.node[50].appl 	meanClusterHeadUtility 	0
scalar RSUExampleScenario.node[50].appl 	NumberofCH 	0.27027027027027
scalar RSUExampleScenario.node[50].appl 	NumberofON 	0
scalar RSUExampleScenario.node[50].appl 	NumberofFN 	0.72972972972973
scalar RSUExampleScenario.node[50].veinsmobility 	startTime 	120.6
scalar RSUExampleScenario.node[50].veinsmobility 	totalTime 	329.4
scalar RSUExampleScenario.node[50].veinsmobility 	stopTime 	450
scalar RSUExampleScenario.node[50].veinsmobility 	minSpeed 	0
scalar RSUExampleScenario.node[50].veinsmobility 	maxSpeed 	13.999875707885
scalar RSUExampleScenario.node[50].veinsmobility 	totalDistance 	1428.6992924546
scalar RSUExampleScenario.node[50].veinsmobility 	totalCO2Emission 	531.0916680683
scalar RSUExampleScenario.node[51].appl 	meanClusterNodes 	0
scalar RSUExampleScenario.node[51].appl 	meanClusterHeadUtility 	0
scalar RSUExampleScenario.node[51].appl 	NumberofCH 	0.27027027027027
scalar RSUExampleScenario.node[51].appl 	NumberofON 	0
scalar RSUExampleScenario.node[51].appl 	NumberofFN 	0.72972972972973
scalar RSUExampleScenario.node[51].veinsmobility 	startTime 	123
scalar RSUExampleScenario.node[51].veinsmobility 	totalTime 	327
scalar RSUExampleScenario.node[51].veinsmobility 	stopTime 	450
scalar RSUExampleScenario.node[51].veinsmobility 	minSpeed 	0
scalar RSUExampleScenario.node[51].veinsmobility 	maxSpeed 	13.99985893473
scalar RSUExampleScenario.node[51].veinsmobility 	totalDistance 	1393.7380498707
scalar RSUExampleScenario.node[51].veinsmobility 	totalCO2Emission 	525.77497200426
scalar RSUExampleScenario.node[52].appl 	meanClusterNodes 	0
scalar RSUExampleScenario.node[52].appl 	meanClusterHeadUtility 	0
scalar RSUExampleScenario.node[52].appl 	NumberofCH 	0.21621621621622
scalar RSUExampleScenario.node[52].appl 	NumberofON 	0
scalar RSUExampleScenario.node[52].appl 	NumberofFN 	0.78378378378378
scalar RSUExampleScenario.node[52].veinsmobility 	startTime 	125.4
scalar RSUExampleScenario.node[52].veinsmobility 	totalTime 	324.6
scalar RSUExampleScenario.node[52].veinsmobility 	stopTime 	450
scalar RSUExampleScenario.node[52].veinsmobility 	minSpeed 	0
scalar RSUExampleScenario.node[52].veinsmobility 	maxSpeed 	13.999899960984
scalar RSUExampleScenario.node[52].veinsmobility 	totalDistance 	1358.8771423965
scalar RSUExampleScenario.node[52].veinsmobility 	totalCO2Emission 	517.58380483293
scalar RSUExampleScenario.node[53].appl 	meanClusterNodes 	0
scalar RSUExampleScenario.node[53].appl 	meanClusterHeadUtility 	0
scalar RSUExampleScenario.node[53].appl 	NumberofCH 	0.18918918918919
scalar RSUExampleScenario.node[53].appl 	NumberofON 	0
scalar RSUExampleScenario.node[53].appl 	NumberofFN 	0.81081081081081
scalar RSUExampleScenario.node[53].veinsmobility 	startTime 	127.8
scalar RSUExampleScenario.node[53].veinsmobility 	totalTime 	322.2
scalar RSUExampleScenario.node[53].veinsmobility 	stopTime 	450
scalar RSUExampleScenario.node[53].veinsmobility 	minSpeed 	0
scalar RSUExampleScenario.node[53].veinsmobility 	maxSpeed 	13.99969104225
scalar RSUExampleScenario.node[53].veinsmobility 	totalDistance 	1327.3926489505
scalar RSUExampleScenario.node[53].veinsmobility 	totalCO2Emission 	513.37679691332
scalar RSUExampleScenario.node[54].appl 	meanClusterNodes 	0
scalar RSUExampleScenario.node[54].appl 	meanClusterHeadUtility 	0
scalar RSUExampleScenario.node[54].appl 	NumberofCH 	0.21621621621622
scalar RSUExampleScenario.node[54].appl 	NumberofON 	0
scalar RSUExampleScenario.node[54].appl 	NumberofFN 	0.78378378378378
scalar RSUExampleScenario.node[54].veinsmobility 	startTime 	130.2
scalar RSUExampleScenario.node[54].veinsmobility 	totalTime 	319.8
scalar RSUExampleScenario.node[54].veinsmobility 	stopTime 	450
scalar RSUExampleScenario.node[54].veinsmobility 	minSpeed 	0
scalar RSUExampleScenario.node[54].veinsmobility 	maxSpeed 	13.999463602446
scalar RSUExampleScenario.node[54].veinsmobility 	totalDistance 	1293.2053546718
scalar RSUExampleScenario.node[54].veinsmobility 	totalCO2Emission 	507.3941046905
scalar RSUExampleScenario.node[55].appl 	meanClusterNodes 	0
scalar RSUExampleScenario.node[55].appl 	meanClusterHeadUtility 	0
scalar RSUExampleScenario.node[55].appl 	NumberofCH 	0.21621621621622
scalar RSUExampleScenario.node[55].appl 	NumberofON 	0
scalar RSUExampleScenario.node[55].appl 	NumberofFN 	0.78378378378378
scalar RSUExampleScenario.node[55].veinsmobility 	startTime 	132.6
scalar RSUExampleScenario.node[55].veinsmobility 	totalTime 	317.4
scalar RSUExampleScenario.node[55].veinsmobility 	stopTime 	450
scalar RSUExampleScenario.node[55].veinsmobility 	minSpeed 	0
scalar RSUExampleScenario.node[55].veinsmobility 	maxSpeed 	13.999893294219
scalar RSUExampleScenario.node[55].veinsmobility 	totalDistance 	1260.2564133728
scalar RSUExampleScenario.node[55].veinsmobility 	totalCO2Emission 	501.55153329316
scalar RSUExampleScenario.node[56].appl 	meanClusterNodes 	0
scalar RSUExampleScenario.node[56].appl 	meanClusterHeadUtility 	0
scalar RSUExampleScenario.node[56].appl 	NumberofCH 	0.27027027027027
scalar RSUExampleScenario.node[56].appl 	NumberofON 	0
scalar RSUExampleScenario.node[56].appl 	NumberofFN 	0.72972972972973
scalar RSUExampleScenario.node[56].veinsmobility 	startTime 	135
scalar RSUExampleScenario.node[56].veinsmobility 	totalTime 	315
scalar RSUExampleScenario.node[56].veinsmobility 	stopTime 	450
scalar RSUExampleScenario.node[56].veinsmobility 	minSpeed 	0
scalar RSUExampleScenario.node[56].veinsmobility 	maxSpeed 	13.99953490867
scalar RSUExampleScenario.node[56].veinsmobility 	totalDistance 	1226.3540753302
scalar RSUExampleScenario.node[56].veinsmobility 	totalCO2Emission 	494.74657960959
scalar RSUExampleScenario.node[57].appl 	meanClusterNodes 	0
scalar RSUExampleScenario.node[57].appl 	meanClusterHeadUtility 	0
scalar RSUExampleScenario.node[57].appl 	NumberofCH 	0.21621621621622
scalar RSUExampleScenario.node[57].appl 	NumberofON 	0
scalar RSUExampleScenario.node[57].appl 	NumberofFN 	0.78378378378378
scalar RSUExampleScenario.node[57].veinsmobility 	startTime 	137.4
scalar RSUExampleScenario.node[57].veinsmobility 	totalTime 	312.6
scalar RSUExampleScenario.node[57].veinsmobility 	stopTime 	450
scalar RSUExampleScenario.node[57].veinsmobility 	minSpeed 	0
scalar RSUExampleScenario.node[57].veinsmobility 	maxSpeed 	13.999965358505
scalar RSUExampleScenario.node[57].veinsmobility 	totalDistance 	1192.3254003643
scalar RSUExampleScenario.node[57].veinsmobility 	totalCO2Emission 	492.30043352344
scalar RSUExampleScenario.node[58].appl 	meanClusterNodes 	0
scalar RSUExampleScenario.node[58].appl 	meanClusterHeadUtility 	0
scalar RSUExampleScenario.node[58].appl 	NumberofCH 	0.27027027027027
scalar RSUExampleScenario.node[58].appl 	NumberofON 	0
scalar RSUExampleScenario.node[58].appl 	NumberofFN 	0.72972972972973
scalar RSUExampleScenario.node[58].veinsmobility 	startTime 	139.8
scalar RSUExampleScenario.node[58].veinsmobility 	totalTime 	310.2
scalar RSUExampleScenario.node[58].veinsmobility 	stopTime 	450
scalar RSUExampleScenario.node[58].veinsmobility 	minSpeed 	0
scalar RSUExampleScenario.node[58].veinsmobility 	maxSpeed 	13.999962768685
scalar RSUExampleScenario.node[58].veinsmobility 	totalDistance 	1159.6379891974
scalar RSUExampleScenario.node[58].veinsmobility 	totalCO2Emission 	484.64445576025
scalar RSUExampleScenario.node[59].appl 	meanClusterNodes 	0
scalar RSUExampleScenario.node[59].appl 	meanClusterHeadUtility 	0
scalar RSUExampleScenario.node[59].appl 	NumberofCH 	0.27027027027027
scalar RSUExampleScenario.node[59].appl 	NumberofON 	0
scalar RSUExampleScenario.node[59].appl 	NumberofFN 	0.72972972972973
scalar RSUExampleScenario.node[59].veinsmobility 	startTime 	142.2
scalar RSUExampleScenario.node[59].veinsmobility 	totalTime 	307.8
scalar RSUExampleScenario.node[59].veinsmobility 	stopTime 	450
scalar RSUExampleScenario.node[59].veinsmobility 	minSpeed 	0
scalar RSUExampleScenario.node[59].veinsmobility 	maxSpeed 	13.999823880894
scalar RSUExampleScenario.node[59].veinsmobility 	totalDistance 	1124.8241329507
scalar RSUExampleScenario.node[59].veinsmobility 	totalCO2Emission 	478.2496205522
scalar RSUExampleScenario.node[6].appl 	meanClusterNodes 	0
scalar RSUExampleScenario.node[6].appl 	meanClusterHeadUtility 	0
scalar RSUExampleScenario.node[6].appl 	NumberofCH 	0.27027027027027
scalar RSUExampleScenario.node[6].appl 	NumberofON 	0
scalar RSUExampleScenario.node[6].appl 	NumberofFN 	0.72972972972973
scalar RSUExampleScenario.node[6].veinsmobility 	startTime 	14.5
scalar RSUExampleScenario.node[6].veinsmobility 	totalTime 	435.5
scalar RSUExampleScenario.node[6].veinsmobility 	stopTime 	450
scalar RSUExampleScenario.node[6].veinsmobility 	minSpeed 	0
scalar RSUExampleScenario.node[6].veinsmobility 	maxSpeed 	13.999806911028
scalar RSUExampleScenario.node[6].veinsmobility 	totalDistance 	2905.0572593366
scalar RSUExampleScenario.node[6].veinsmobility 	totalCO2Emission 	775.32584018601
scalar RSUExampleScenario.node[60].appl 	meanClusterNodes 	0
scalar RSUExampleScenario.node[60].appl 	meanClusterHeadUtility 	0
scalar RSUExampleScenario.node[60].appl 	NumberofCH 	0.27027027027027
scalar RSUExampleScenario.node[60].appl 	NumberofON 	0
scalar RSUExampleScenario.node[60].appl 	NumberofFN 	0.72972972972973
scalar RSUExampleScenario.node[60].veinsmobility 	startTime 	144.7
scalar RSUExampleScenario.node[60].veinsmobility 	totalTime 	305.3
scalar RSUExampleScenario.node[60].veinsmobility 	stopTime 	450
scalar RSUExampleScenario.node[60].veinsmobility 	minSpeed 	0
scalar RSUExampleScenario.node[60].veinsmobility 	maxSpeed 	13.999055797241
scalar RSUExampleScenario.node[60].veinsmobility 	totalDistance 	1092.7906047548
scalar RSUExampleScenario.node[60].veinsmobility 	totalCO2Emission 	474.61365392974
scalar RSUExampleScenario.node[61].appl 	meanClusterNodes 	0
scalar RSUExampleScenario.node[61].appl 	meanClusterHeadUtility 	0
scalar RSUExampleScenario.node[61].appl 	NumberofCH 	0.21621621621622
scalar RSUExampleScenario.node[61].appl 	NumberofON 	0
scalar RSUExampleScenario.node[61].appl 	NumberofFN 	0.78378378378378
scalar RSUExampleScenario.node[61].veinsmobility 	startTime 	147.1
scalar RSUExampleScenario.node[61].veinsmobility 	totalTime 	302.9
scalar RSUExampleScenario.node[61].veinsmobility 	stopTime 	450
scalar RSUExampleScenario.node[61].veinsmobility 	minSpeed 	0
scalar RSUExampleScenario.node[61].veinsmobility 	maxSpeed 	13.999909627973
scalar RSUExampleScenario.node[61].veinsmobility 	totalDistance 	1058.8743949976
scalar RSUExampleScenario.node[61].veinsmobility 	totalCO2Emission 	468.32165473594
scalar RSUExampleScenario.node[62].appl 	meanClusterNodes 	0
scalar RSUExampleScenario.node[62].appl 	meanClusterHeadUtility 	0
scalar RSUExampleScenario.node[62].appl 	NumberofCH 	0.27027027027027
scalar RSUExampleScenario.node[62].appl 	NumberofON 	0
scalar RSUExampleScenario.node[62].appl 	NumberofFN 	0.72972972972973
scalar RSUExampleScenario.node[62].veinsmobility 	startTime 	149.5
scalar RSUExampleScenario.node[62].veinsmobility 	totalTime 	300.5
scalar RSUExampleScenario.node[62].veinsmobility 	stopTime 	450
scalar RSUExampleScenario.node[62].veinsmobility 	minSpeed 	0
scalar RSUExampleScenario.node[62].veinsmobility 	maxSpeed 	13.999796117041
scalar RSUExampleScenario.node[62].veinsmobility 	totalDistance 	1024.8376368082
scalar RSUExampleScenario.node[62].veinsmobility 	totalCO2Emission 	462.99544778008
scalar RSUExampleScenario.node[63].appl 	meanClusterNodes 	0
scalar RSUExampleScenario.node[63].appl 	meanClusterHeadUtility 	0
scalar RSUExampleScenario.node[63].appl 	NumberofCH 	0.27027027027027
scalar RSUExampleScenario.node[63].appl 	NumberofON 	0
scalar RSUExampleScenario.node[63].appl 	NumberofFN 	0.72972972972973
scalar RSUExampleScenario.node[63].veinsmobility 	startTime 	151.9
scalar RSUExampleScenario.node[63].veinsmobility 	totalTime 	298.1
scalar RSUExampleScenario.node[63].veinsmobility 	stopTime 	450
scalar RSUExampleScenario.node[63].veinsmobility 	minSpeed 	0
scalar RSUExampleScenario.node[63].veinsmobility 	maxSpeed 	13.999887520389
scalar RSUExampleScenario.node[63].veinsmobility 	totalDistance 	983.76164002045
scalar RSUExampleScenario.node[63].veinsmobility 	totalCO2Emission 	449.98409727064
scalar RSUExampleScenario.node[64].appl 	meanClusterNodes 	0
scalar RSUExampleScenario.node[64].appl 	meanClusterHeadUtility 	0
scalar RSUExampleScenario.node[64].appl 	NumberofCH 	0.24324324324324
scalar RSUExampleScenario.node[64].appl 	NumberofON 	0
scalar RSUExampleScenario.node[64].appl 	NumberofFN 	0.75675675675676
scalar RSUExampleScenario.node[64].veinsmobility 	startTime 	154.3
scalar RSUExampleScenario.node[64].veinsmobility 	totalTime 	295.7
scalar RSUExampleScenario.node[64].veinsmobility 	stopTime 	450
scalar RSUExampleScenario.node[64].veinsmobility 	minSpeed 	0
scalar RSUExampleScenario.node[64].veinsmobility 	maxSpeed 	13.999226004889
scalar RSUExampleScenario.node[64].veinsmobility 	totalDistance 	953.58167241193
scalar RSUExampleScenario.node[64].veinsmobility 	totalCO2Emission 	435.18012938513
scalar RSUExampleScenario.node[65].appl 	meanClusterNodes 	0
scalar RSUExampleScenario.node[65].appl 	meanClusterHeadUtility 	0
scalar RSUExampleScenario.node[65].appl 	NumberofCH 	0.21621621621622
scalar RSUExampleScenario.node[65].appl 	NumberofON 	0
scalar RSUExampleScenario.node[65].appl 	NumberofFN 	0.78378378378378
scalar RSUExampleScenario.node[65].veinsmobility 	startTime 	156.7
scalar RSUExampleScenario.node[65].veinsmobility 	totalTime 	293.3
scalar RSUExampleScenario.node[65].veinsmobility 	stopTime 	450
scalar RSUExampleScenario.node[65].veinsmobility 	minSpeed 	0
scalar RSUExampleScenario.node[65].veinsmobility 	maxSpeed 	13.999970374485
scalar RSUExampleScenario.node[65].veinsmobility 	totalDistance 	940.39864364283
scalar RSUExampleScenario.node[65].veinsmobility 	totalCO2Emission 	428.36830469087
scalar RSUExampleScenario.node[66].appl 	meanClusterNodes 	0
scalar RSUExampleScenario.node[66].appl 	meanClusterHeadUtility 	0
scalar RSUExampleScenario.node[66].appl 	NumberofCH 	0.27027027027027
scalar RSUExampleScenario.node[66].appl 	NumberofON 	0
scalar RSUExampleScenario.node[66].appl 	NumberofFN 	0.72972972972973
scalar RSUExampleScenario.node[66].veinsmobility 	startTime 	159.1
scalar RSUExampleScenario.node[66].veinsmobility 	totalTime 	290.9
scalar RSUExampleScenario.node[66].veinsmobility 	stopTime 	450
scalar RSUExampleScenario.node[66].veinsmobility 	minSpeed 	0
scalar RSUExampleScenario.node[66].veinsmobility 	maxSpeed 	13.999857119983
scalar RSUExampleScenario.node[66].veinsmobility 	totalDistance 	928.06038638535
scalar RSUExampleScenario.node[66].veinsmobility 	totalCO2Emission 	425.17741201914
scalar RSUExampleScenario.node[67].appl 	meanClusterNodes 	0
scalar RSUExampleScenario.node[67].appl 	meanClusterHeadUtility 	0
scalar RSUExampleScenario.node[67].appl 	NumberofCH 	0.21621621621622
scalar RSUExampleScenario.node[67].appl 	NumberofON 	0
scalar RSUExampleScenario.node[67].appl 	NumberofFN 	0.78378378378378
scalar RSUExampleScenario.node[67].veinsmobility 	startTime 	161.5
scalar RSUExampleScenario.node[67].veinsmobility 	totalTime 	288.5
scalar RSUExampleScenario.node[67].veinsmobility 	stopTime 	450
scalar RSUExampleScenario.node[67].veinsmobility 	minSpeed 	0
scalar RSUExampleScenario.node[67].veinsmobility 	maxSpeed 	13.9992816145
scalar RSUExampleScenario.node[67].veinsmobility 	totalDistance 	912.75733286175
scalar RSUExampleScenario.node[67].veinsmobility 	totalCO2Emission 	422.09564957425
scalar RSUExampleScenario.node[68].appl 	meanClusterNodes 	0
scalar RSUExampleScenario.node[68].appl 	meanClusterHeadUtility 	0
scalar RSUExampleScenario.node[68].appl 	NumberofCH 	0.21621621621622
scalar RSUExampleScenario.node[68].appl 	NumberofON 	0
scalar RSUExampleScenario.node[68].appl 	NumberofFN 	0.78378378378378
scalar RSUExampleScenario.node[68].veinsmobility 	startTime 	163.9
scalar RSUExampleScenario.node[68].veinsmobility 	totalTime 	286.1
scalar RSUExampleScenario.node[68].veinsmobility 	stopTime 	450
scalar RSUExampleScenario.node[68].veinsmobility 	minSpeed 	0
scalar RSUExampleScenario.node[68].veinsmobility 	maxSpeed 	13.999740974526
scalar RSUExampleScenario.node[68].veinsmobility 	totalDistance 	890.55862524918
scalar RSUExampleScenario.node[68].veinsmobility 	totalCO2Emission 	416.89171439294
scalar RSUExampleScenario.node[69].appl 	meanClusterNodes 	0
scalar RSUExampleScenario.node[69].appl 	meanClusterHeadUtility 	0
scalar RSUExampleScenario.node[69].appl 	NumberofCH 	0.27027027027027
scalar RSUExampleScenario.node[69].appl 	NumberofON 	0
scalar RSUExampleScenario.node[69].appl 	NumberofFN 	0.72972972972973
scalar RSUExampleScenario.node[69].veinsmobility 	startTime 	166.3
scalar RSUExampleScenario.node[69].veinsmobility 	totalTime 	283.7
scalar RSUExampleScenario.node[69].veinsmobility 	stopTime 	450
scalar RSUExampleScenario.node[69].veinsmobility 	minSpeed 	0
scalar RSUExampleScenario.node[69].veinsmobility 	maxSpeed 	13.999741083975
scalar RSUExampleScenario.node[69].veinsmobility 	totalDistance 	858.11037297636
scalar RSUExampleScenario.node[69].veinsmobility 	totalCO2Emission 	413.54914727085
scalar RSUExampleScenario.node[7].appl 	meanClusterNodes 	0
scalar RSUExampleScenario.node[7].appl 	meanClusterHeadUtility 	0
scalar RSUExampleScenario.node[7].appl 	NumberofCH 	0.24324324324324
scalar RSUExampleScenario.node[7].appl 	NumberofON 	0
scalar RSUExampleScenario.node[7].appl 	NumberofFN 	0.75675675675676
scalar RSUExampleScenario.node[7].veinsmobility 	startTime 	16.9
scalar RSUExampleScenario.node[7].veinsmobility 	totalTime 	433.1
scalar RSUExampleScenario.node[7].veinsmobility 	stopTime 	450
scalar RSUExampleScenario.node[7].veinsmobility 	minSpeed 	0
scalar RSUExampleScenario.node[7].veinsmobility 	maxSpeed 	13.999893424008
scalar RSUExampleScenario.node[7].veinsmobility 	totalDistance 	2884.9090132717
scalar RSUExampleScenario.node[7].veinsmobility 	totalCO2Emission 	773.5818466924
scalar RSUExampleScenario.node[70].appl 	meanClusterNodes 	0
scalar RSUExampleScenario.node[70].appl 	meanClusterHeadUtility 	0
scalar RSUExampleScenario.node[70].appl 	NumberofCH 	0.21621621621622
scalar RSUExampleScenario.node[70].appl 	NumberofON 	0
scalar RSUExampleScenario.node[70].appl 	NumberofFN 	0.78378378378378
scalar RSUExampleScenario.node[70].veinsmobility 	startTime 	168.8
scalar RSUExampleScenario.node[70].veinsmobility 	totalTime 	281.2
scalar RSUExampleScenario.node[70].veinsmobility 	stopTime 	450
scalar RSUExampleScenario.node[70].veinsmobility 	minSpeed 	0
scalar RSUExampleScenario.node[70].veinsmobility 	maxSpeed 	13.999738623037
scalar RSUExampleScenario.node[70].veinsmobility 	totalDistance 	824.39588245105
scalar RSUExampleScenario.node[70].veinsmobility 	totalCO2Emission 	406.70797690346
scalar RSUExampleScenario.node[71].appl 	meanClusterNodes 	0
scalar RSUExampleScenario.node[71].appl 	meanClusterHeadUtility 	0
scalar RSUExampleScenario.node[71].appl 	NumberofCH 	0.21621621621622
scalar RSUExampleScenario.node[71].appl 	NumberofON 	0
scalar RSUExampleScenario.node[71].appl 	NumberofFN 	0.78378378378378
scalar RSUExampleScenario.node[71].veinsmobility 	startTime 	171.2
scalar RSUExampleScenario.node[71].veinsmobility 	totalTime 	278.8
scalar RSUExampleScenario.node[71].veinsmobility 	stopTime 	450
scalar RSUExampleScenario.node[71].veinsmobility 	minSpeed 	0
scalar RSUExampleScenario.node[71].veinsmobility 	maxSpeed 	13.999446783769
scalar RSUExampleScenario.node[71].veinsmobility 	totalDistance 	791.43008201875
scalar RSUExampleScenario.node[71].veinsmobility 	totalCO2Emission 	402.1519446993
scalar RSUExampleScenario.node[72].appl 	meanClusterNodes 	0
scalar RSUExampleScenario.node[72].appl 	meanClusterHeadUtility 	0
scalar RSUExampleScenario.node[72].appl 	NumberofCH 	0.27027027027027
scalar RSUExampleScenario.node[72].appl 	NumberofON 	0
scalar RSUExampleScenario.node[72].appl 	NumberofFN 	0.72972972972973
scalar RSUExampleScenario.node[72].veinsmobility 	startTime 	173.6
scalar RSUExampleScenario.node[72].veinsmobility 	totalTime 	276.4
scalar RSUExampleScenario.node[72].veinsmobility 	stopTime 	450
scalar RSUExampleScenario.node[72].veinsmobility 	minSpeed 	0
scalar RSUExampleScenario.node[72].veinsmobility 	maxSpeed 	13.999395331314
scalar RSUExampleScenario.node[72].veinsmobility 	totalDistance 	759.44718394721
scalar RSUExampleScenario.node[72].veinsmobility 	totalCO2Emission 	396.12473630787
scalar RSUExampleScenario.node[73].appl 	meanClusterNodes 	0
scalar RSUExampleScenario.node[73].appl 	meanClusterHeadUtility 	0
scalar RSUExampleScenario.node[73].appl 	NumberofCH 	0.27027027027027
scalar RSUExampleScenario.node[73].appl 	NumberofON 	0
scalar RSUExampleScenario.node[73].appl 	NumberofFN 	0.72972972972973
scalar RSUExampleScenario.node[73].veinsmobility 	startTime 	176
scalar RSUExampleScenario.node[73].veinsmobility 	totalTime 	274
scalar RSUExampleScenario.node[73].veinsmobility 	stopTime 	450
scalar RSUExampleScenario.node[73].veinsmobility 	minSpeed 	0
scalar RSUExampleScenario.node[73].veinsmobility 	maxSpeed 	13.999617147509
scalar RSUExampleScenario.node[73].veinsmobility 	totalDistance 	725.41510657316
scalar RSUExampleScenario.node[73].veinsmobility 	totalCO2Emission 	390.23578590461
scalar RSUExampleScenario.node[74].appl 	meanClusterNodes 	0
scalar RSUExampleScenario.node[74].appl 	meanClusterHeadUtility 	0
scalar RSUExampleScenario.node[74].appl 	NumberofCH 	0.27027027027027
scalar RSUExampleScenario.node[74].appl 	NumberofON 	0
scalar RSUExampleScenario.node[74].appl 	NumberofFN 	0.72972972972973
scalar RSUExampleScenario.node[74].veinsmobility 	startTime 	178.4
scalar RSUExampleScenario.node[74].veinsmobility 	totalTime 	271.6
scalar RSUExampleScenario.node[74].veinsmobility 	stopTime 	450
scalar RSUExampleScenario.node[74].veinsmobility 	minSpeed 	0
scalar RSUExampleScenario.node[74].veinsmobility 	maxSpeed 	13.997753269197
scalar RSUExampleScenario.node[74].veinsmobility 	totalDistance 	691.87158251588
scalar RSUExampleScenario.node[74].veinsmobility 	totalCO2Emission 	385.15760912155
scalar RSUExampleScenario.node[75].appl 	meanClusterNodes 	0
scalar RSUExampleScenario.node[75].appl 	meanClusterHeadUtility 	0
scalar RSUExampleScenario.node[75].appl 	NumberofCH 	0.27027027027027
scalar RSUExampleScenario.node[75].appl 	NumberofON 	0
scalar RSUExampleScenario.node[75].appl 	NumberofFN 	0.72972972972973
scalar RSUExampleScenario.node[75].veinsmobility 	startTime 	180.8
scalar RSUExampleScenario.node[75].veinsmobility 	totalTime 	269.2
scalar RSUExampleScenario.node[75].veinsmobility 	stopTime 	450
scalar RSUExampleScenario.node[75].veinsmobility 	minSpeed 	0
scalar RSUExampleScenario.node[75].veinsmobility 	maxSpeed 	13.999380247688
scalar RSUExampleScenario.node[75].veinsmobility 	totalDistance 	659.17290560225
scalar RSUExampleScenario.node[75].veinsmobility 	totalCO2Emission 	380.29472860064
scalar RSUExampleScenario.node[76].appl 	meanClusterNodes 	0
scalar RSUExampleScenario.node[76].appl 	meanClusterHeadUtility 	0
scalar RSUExampleScenario.node[76].appl 	NumberofCH 	0.24324324324324
scalar RSUExampleScenario.node[76].appl 	NumberofON 	0
scalar RSUExampleScenario.node[76].appl 	NumberofFN 	0.75675675675676
scalar RSUExampleScenario.node[76].veinsmobility 	startTime 	183.2
scalar RSUExampleScenario.node[76].veinsmobility 	totalTime 	266.8
scalar RSUExampleScenario.node[76].veinsmobility 	stopTime 	450
scalar RSUExampleScenario.node[76].veinsmobility 	minSpeed 	0
scalar RSUExampleScenario.node[76].veinsmobility 	maxSpeed 	13.999520658837
scalar RSUExampleScenario.node[76].veinsmobility 	totalDistance 	624.50205007822
scalar RSUExampleScenario.node[76].veinsmobility 	totalCO2Emission 	371.89658827693
scalar RSUExampleScenario.node[77].appl 	meanClusterNodes 	0
scalar RSUExampleScenario.node[77].appl 	meanClusterHeadUtility 	0
scalar RSUExampleScenario.node[77].appl 	NumberofCH 	0.24324324324324
scalar RSUExampleScenario.node[77].appl 	NumberofON 	0
scalar RSUExampleScenario.node[77].appl 	NumberofFN 	0.75675675675676
scalar RSUExampleScenario.node[77].veinsmobility 	startTime 	185.6
scalar RSUExampleScenario.node[77].veinsmobility 	totalTime 	264.4
scalar RSUExampleScenario.node[77].veinsmobility 	stopTime 	450
scalar RSUExampleScenario.node[77].veinsmobility 	minSpeed 	0
scalar RSUExampleScenario.node[77].veinsmobility 	maxSpeed 	13.999703377089
scalar RSUExampleScenario.node[77].veinsmobility 	totalDistance 	591.55481566645
scalar RSUExampleScenario.node[77].veinsmobility 	totalCO2Emission 	368.37495848378
scalar RSUExampleScenario.node[78].appl 	meanClusterNodes 	0
scalar RSUExampleScenario.node[78].appl 	meanClusterHeadUtility 	0
scalar RSUExampleScenario.node[78].appl 	NumberofCH 	0.21621621621622
scalar RSUExampleScenario.node[78].appl 	NumberofON 	0
scalar RSUExampleScenario.node[78].appl 	NumberofFN 	0.78378378378378
scalar RSUExampleScenario.node[78].veinsmobility 	startTime 	188
scalar RSUExampleScenario.node[78].veinsmobility 	totalTime 	262
scalar RSUExampleScenario.node[78].veinsmobility 	stopTime 	450
scalar RSUExampleScenario.node[78].veinsmobility 	minSpeed 	0
scalar RSUExampleScenario.node[78].veinsmobility 	maxSpeed 	13.999866587415
scalar RSUExampleScenario.node[78].veinsmobility 	totalDistance 	557.54620624681
scalar RSUExampleScenario.node[78].veinsmobility 	totalCO2Emission 	362.39665609594
scalar RSUExampleScenario.node[79].appl 	meanClusterNodes 	0
scalar RSUExampleScenario.node[79].appl 	meanClusterHeadUtility 	0
scalar RSUExampleScenario.node[79].appl 	NumberofCH 	0.21621621621622
scalar RSUExampleScenario.node[79].appl 	NumberofON 	0
scalar RSUExampleScenario.node[79].appl 	NumberofFN 	0.78378378378378
scalar RSUExampleScenario.node[79].veinsmobility 	startTime 	190.4
scalar RSUExampleScenario.node[79].veinsmobility 	totalTime 	259.6
scalar RSUExampleScenario.node[79].veinsmobility 	stopTime 	450
scalar RSUExampleScenario.node[79].veinsmobility 	minSpeed 	0
scalar RSUExampleScenario.node[79].veinsmobility 	maxSpeed 	13.999375897967
scalar RSUExampleScenario.node[79].veinsmobility 	totalDistance 	524.48906598382
scalar RSUExampleScenario.node[79].veinsmobility 	totalCO2Emission 	356.55106606594
scalar RSUExampleScenario.node[8].appl 	meanClusterNodes 	0
scalar RSUExampleScenario.node[8].appl 	meanClusterHeadUtility 	0
scalar RSUExampleScenario.node[8].appl 	NumberofCH 	0.27027027027027
scalar RSUExampleScenario.node[8].appl 	NumberofON 	0
scalar RSUExampleScenario.node[8].appl 	NumberofFN 	0.72972972972973
scalar RSUExampleScenario.node[8].veinsmobility 	startTime 	19.3
scalar RSUExampleScenario.node[8].veinsmobility 	totalTime 	430.7
scalar RSUExampleScenario.node[8].veinsmobility 	stopTime 	450
scalar RSUExampleScenario.node[8].veinsmobility 	minSpeed 	0
scalar RSUExampleScenario.node[8].veinsmobility 	maxSpeed 	13.999990177252
scalar RSUExampleScenario.node[8].veinsmobility 	totalDistance 	2861.3683162906
scalar RSUExampleScenario.node[8].veinsmobility 	totalCO2Emission 	767.18426957421
scalar RSUExampleScenario.node[80].appl 	meanClusterNodes 	0
scalar RSUExampleScenario.node[80].appl 	meanClusterHeadUtility 	0
scalar RSUExampleScenario.node[80].appl 	NumberofCH 	0.21621621621622
scalar RSUExampleScenario.node[80].appl 	NumberofON 	0
scalar RSUExampleScenario.node[80].appl 	NumberofFN 	0.78378378378378
scalar RSUExampleScenario.node[80].veinsmobility 	startTime 	192.9
scalar RSUExampleScenario.node[80].veinsmobility 	totalTime 	257.1
scalar RSUExampleScenario.node[80].veinsmobility 	stopTime 	450
scalar RSUExampleScenario.node[80].veinsmobility 	minSpeed 	0
scalar RSUExampleScenario.node[80].veinsmobility 	maxSpeed 	13.999185385436
scalar RSUExampleScenario.node[80].veinsmobility 	totalDistance 	489.74893738984
scalar RSUExampleScenario.node[80].veinsmobility 	totalCO2Emission 	351.24935134469
scalar RSUExampleScenario.node[81].appl 	meanClusterNodes 	0
scalar RSUExampleScenario.node[81].appl 	meanClusterHeadUtility 	0
scalar RSUExampleScenario.node[81].appl 	NumberofCH 	0.2972972972973
scalar RSUExampleScenario.node[81].appl 	NumberofON 	0
scalar RSUExampleScenario.node[81].appl 	NumberofFN 	0.7027027027027
scalar RSUExampleScenario.node[81].veinsmobility 	startTime 	195.3
scalar RSUExampleScenario.node[81].veinsmobility 	totalTime 	254.7
scalar RSUExampleScenario.node[81].veinsmobility 	stopTime 	450
scalar RSUExampleScenario.node[81].veinsmobility 	minSpeed 	0
scalar RSUExampleScenario.node[81].veinsmobility 	maxSpeed 	13.999789442194
scalar RSUExampleScenario.node[81].veinsmobility 	totalDistance 	457.44978059418
scalar RSUExampleScenario.node[81].veinsmobility 	totalCO2Emission 	345.85906469769
scalar RSUExampleScenario.node[82].appl 	meanClusterNodes 	0
scalar RSUExampleScenario.node[82].appl 	meanClusterHeadUtility 	0
scalar RSUExampleScenario.node[82].appl 	NumberofCH 	0.2972972972973
scalar RSUExampleScenario.node[82].appl 	NumberofON 	0
scalar RSUExampleScenario.node[82].appl 	NumberofFN 	0.7027027027027
scalar RSUExampleScenario.node[82].veinsmobility 	startTime 	197.7
scalar RSUExampleScenario.node[82].veinsmobility 	totalTime 	252.3
scalar RSUExampleScenario.node[82].veinsmobility 	stopTime 	450
scalar RSUExampleScenario.node[82].veinsmobility 	minSpeed 	0
scalar RSUExampleScenario.node[82].veinsmobility 	maxSpeed 	13.998950858414
scalar RSUExampleScenario.node[82].veinsmobility 	totalDistance 	423.9160855524
scalar RSUExampleScenario.node[82].veinsmobility 	totalCO2Emission 	338.93220787474
scalar RSUExampleScenario.node[83].appl 	meanClusterNodes 	0
scalar RSUExampleScenario.node[83].appl 	meanClusterHeadUtility 	0
scalar RSUExampleScenario.node[83].appl 	NumberofCH 	0.2972972972973
scalar RSUExampleScenario.node[83].appl 	NumberofON 	0
scalar RSUExampleScenario.node[83].appl 	NumberofFN 	0.7027027027027
scalar RSUExampleScenario.node[83].veinsmobility 	startTime 	200.1
scalar RSUExampleScenario.node[83].veinsmobility 	totalTime 	249.9
scalar RSUExampleScenario.node[83].veinsmobility 	stopTime 	450
scalar RSUExampleScenario.node[83].veinsmobility 	minSpeed 	0
scalar RSUExampleScenario.node[83].veinsmobility 	maxSpeed 	13.998660633611
scalar RSUExampleScenario.node[83].veinsmobility 	totalDistance 	390.37373392937
scalar RSUExampleScenario.node[83].veinsmobility 	totalCO2Emission 	334.02571239496
scalar RSUExampleScenario.node[84].appl 	meanClusterNodes 	0
scalar RSUExampleScenario.node[84].appl 	meanClusterHeadUtility 	0
scalar RSUExampleScenario.node[84].appl 	NumberofCH 	0.2972972972973
scalar RSUExampleScenario.node[84].appl 	NumberofON 	0
scalar RSUExampleScenario.node[84].appl 	NumberofFN 	0.7027027027027
scalar RSUExampleScenario.node[84].veinsmobility 	startTime 	202.5
scalar RSUExampleScenario.node[84].veinsmobility 	totalTime 	247.5
scalar RSUExampleScenario.node[84].veinsmobility 	stopTime 	450
scalar RSUExampleScenario.node[84].veinsmobility 	minSpeed 	0
scalar RSUExampleScenario.node[84].veinsmobility 	maxSpeed 	13.996306974678
scalar RSUExampleScenario.node[84].veinsmobility 	totalDistance 	355.99846186881
scalar RSUExampleScenario.node[84].veinsmobility 	totalCO2Emission 	327.69547580884
scalar RSUExampleScenario.node[85].appl 	meanClusterNodes 	0
scalar RSUExampleScenario.node[85].appl 	meanClusterHeadUtility 	0
scalar RSUExampleScenario.node[85].appl 	NumberofCH 	0.21621621621622
scalar RSUExampleScenario.node[85].appl 	NumberofON 	0
scalar RSUExampleScenario.node[85].appl 	NumberofFN 	0.78378378378378
scalar RSUExampleScenario.node[85].veinsmobility 	startTime 	204.9
scalar RSUExampleScenario.node[85].veinsmobility 	totalTime 	245.1
scalar RSUExampleScenario.node[85].veinsmobility 	stopTime 	450
scalar RSUExampleScenario.node[85].veinsmobility 	minSpeed 	0
scalar RSUExampleScenario.node[85].veinsmobility 	maxSpeed 	13.999179145449
scalar RSUExampleScenario.node[85].veinsmobility 	totalDistance 	321.25345152086
scalar RSUExampleScenario.node[85].veinsmobility 	totalCO2Emission 	322.17033549674
scalar RSUExampleScenario.node[86].appl 	meanClusterNodes 	0
scalar RSUExampleScenario.node[86].appl 	meanClusterHeadUtility 	0
scalar RSUExampleScenario.node[86].appl 	NumberofCH 	0.24324324324324
scalar RSUExampleScenario.node[86].appl 	NumberofON 	0
scalar RSUExampleScenario.node[86].appl 	NumberofFN 	0.75675675675676
scalar RSUExampleScenario.node[86].veinsmobility 	startTime 	207.3
scalar RSUExampleScenario.node[86].veinsmobility 	totalTime 	242.7
scalar RSUExampleScenario.node[86].veinsmobility 	stopTime 	450
scalar RSUExampleScenario.node[86].veinsmobility 	minSpeed 	0
scalar RSUExampleScenario.node[86].veinsmobility 	maxSpeed 	13.834922867449
scalar RSUExampleScenario.node[86].veinsmobility 	totalDistance 	289.030519877
scalar RSUExampleScenario.node[86].veinsmobility 	totalCO2Emission 	316.54561941477
scalar RSUExampleScenario.node[87].appl 	meanClusterNodes 	0
scalar RSUExampleScenario.node[87].appl 	meanClusterHeadUtility 	0
scalar RSUExampleScenario.node[87].appl 	NumberofCH 	0.27027027027027
scalar RSUExampleScenario.node[87].appl 	NumberofON 	0
scalar RSUExampleScenario.node[87].appl 	NumberofFN 	0.72972972972973
scalar RSUExampleScenario.node[87].veinsmobility 	startTime 	209.7
scalar RSUExampleScenario.node[87].veinsmobility 	totalTime 	240.3
scalar RSUExampleScenario.node[87].veinsmobility 	stopTime 	450
scalar RSUExampleScenario.node[87].veinsmobility 	minSpeed 	0
scalar RSUExampleScenario.node[87].veinsmobility 	maxSpeed 	13.843034995981
scalar RSUExampleScenario.node[87].veinsmobility 	totalDistance 	249.18288766805
scalar RSUExampleScenario.node[87].veinsmobility 	totalCO2Emission 	298.65671134663
scalar RSUExampleScenario.node[88].appl 	meanClusterNodes 	0
scalar RSUExampleScenario.node[88].appl 	meanClusterHeadUtility 	0
scalar RSUExampleScenario.node[88].appl 	NumberofCH 	0.27027027027027
scalar RSUExampleScenario.node[88].appl 	NumberofON 	0
scalar RSUExampleScenario.node[88].appl 	NumberofFN 	0.72972972972973
scalar RSUExampleScenario.node[88].veinsmobility 	startTime 	212.1
scalar RSUExampleScenario.node[88].veinsmobility 	totalTime 	237.9
scalar RSUExampleScenario.node[88].veinsmobility 	stopTime 	450
scalar RSUExampleScenario.node[88].veinsmobility 	minSpeed 	0
scalar RSUExampleScenario.node[88].veinsmobility 	maxSpeed 	13.880194763388
scalar RSUExampleScenario.node[88].veinsmobility 	totalDistance 	226.03965862594
scalar RSUExampleScenario.node[88].veinsmobility 	totalCO2Emission 	287.25307953041
scalar RSUExampleScenario.node[89].appl 	meanClusterNodes 	0
scalar RSUExampleScenario.node[89].appl 	meanClusterHeadUtility 	0
scalar RSUExampleScenario.node[89].appl 	NumberofCH 	0.24324324324324
scalar RSUExampleScenario.node[89].appl 	NumberofON 	0
scalar RSUExampleScenario.node[89].appl 	NumberofFN 	0.75675675675676
scalar RSUExampleScenario.node[89].veinsmobility 	startTime 	214.5
scalar RSUExampleScenario.node[89].veinsmobility 	totalTime 	235.5
scalar RSUExampleScenario.node[89].veinsmobility 	stopTime 	450
scalar RSUExampleScenario.node[89].veinsmobility 	minSpeed 	0
scalar RSUExampleScenario.node[89].veinsmobility 	maxSpeed 	13.861047609483
scalar RSUExampleScenario.node[89].veinsmobility 	totalDistance 	215.28725071139
scalar RSUExampleScenario.node[89].veinsmobility 	totalCO2Emission 	283.19944189518
scalar RSUExampleScenario.node[9].appl 	meanClusterNodes 	0
scalar RSUExampleScenario.node[9].appl 	meanClusterHeadUtility 	0
scalar RSUExampleScenario.node[9].appl 	NumberofCH 	0.21621621621622
scalar RSUExampleScenario.node[9].appl 	NumberofON 	0
scalar RSUExampleScenario.node[9].appl 	NumberofFN 	0.78378378378378
scalar RSUExampleScenario.node[9].veinsmobility 	startTime 	21.7
scalar RSUExampleScenario.node[9].veinsmobility 	totalTime 	428.3
scalar RSUExampleScenario.node[9].veinsmobility 	stopTime 	450
scalar RSUExampleScenario.node[9].veinsmobility 	minSpeed 	0
scalar RSUExampleScenario.node[9].veinsmobility 	maxSpeed 	13.999948940121
scalar RSUExampleScenario.node[9].veinsmobility 	totalDistance 	2822.9047513949
scalar RSUExampleScenario.node[9].veinsmobility 	totalCO2Emission 	762.50348831312
scalar RSUExampleScenario.node[90].appl 	meanClusterNodes 	0
scalar RSUExampleScenario.node[90].appl 	meanClusterHeadUtility 	0
scalar RSUExampleScenario.node[90].appl 	NumberofCH 	0.21621621621622
scalar RSUExampleScenario.node[90].appl 	NumberofON 	0
scalar RSUExampleScenario.node[90].appl 	NumberofFN 	0.78378378378378
scalar RSUExampleScenario.node[90].veinsmobility 	startTime 	217
scalar RSUExampleScenario.node[90].veinsmobility 	totalTime 	233
scalar RSUExampleScenario.node[90].veinsmobility 	stopTime 	450
scalar RSUExampleScenario.node[90].veinsmobility 	minSpeed 	0
scalar RSUExampleScenario.node[90].veinsmobility 	maxSpeed 	13.787558152843
scalar RSUExampleScenario.node[90].veinsmobility 	totalDistance 	202.20691302311
scalar RSUExampleScenario.node[90].veinsmobility 	totalCO2Emission 	280.40209989276
scalar RSUExampleScenario.node[91].appl 	meanClusterNodes 	0
scalar RSUExampleScenario.node[91].appl 	meanClusterHeadUtility 	0
scalar RSUExampleScenario.node[91].appl 	NumberofCH 	0.21621621621622
scalar RSUExampleScenario.node[91].appl 	NumberofON 	0
scalar RSUExampleScenario.node[91].appl 	NumberofFN 	0.78378378378378
scalar RSUExampleScenario.node[91].veinsmobility 	startTime 	219.4
scalar RSUExampleScenario.node[91].veinsmobility 	totalTime 	230.6
scalar RSUExampleScenario.node[91].veinsmobility 	stopTime 	450
scalar RSUExampleScenario.node[91].veinsmobility 	minSpeed 	0
scalar RSUExampleScenario.node[91].veinsmobility 	maxSpeed 	13.865808846946
scalar RSUExampleScenario.node[91].veinsmobility 	totalDistance 	185.49662426595
scalar RSUExampleScenario.node[91].veinsmobility 	totalCO2Emission 	277.77989449593
scalar RSUExampleScenario.node[92].appl 	meanClusterNodes 	0
scalar RSUExampleScenario.node[92].appl 	meanClusterHeadUtility 	0
scalar RSUExampleScenario.node[92].appl 	NumberofCH 	0.21621621621622
scalar RSUExampleScenario.node[92].appl 	NumberofON 	0
scalar RSUExampleScenario.node[92].appl 	NumberofFN 	0.78378378378378
scalar RSUExampleScenario.node[92].veinsmobility 	startTime 	221.8
scalar RSUExampleScenario.node[92].veinsmobility 	totalTime 	228.2
scalar RSUExampleScenario.node[92].veinsmobility 	stopTime 	450
scalar RSUExampleScenario.node[92].veinsmobility 	minSpeed 	0
scalar RSUExampleScenario.node[92].veinsmobility 	maxSpeed 	13.862874642154
scalar RSUExampleScenario.node[92].veinsmobility 	totalDistance 	151.25288041048
scalar RSUExampleScenario.node[92].veinsmobility 	totalCO2Emission 	264.66024698187
scalar RSUExampleScenario.node[93].appl 	meanClusterNodes 	0
scalar RSUExampleScenario.node[93].appl 	meanClusterHeadUtility 	0
scalar RSUExampleScenario.node[93].appl 	NumberofCH 	0.21621621621622
scalar RSUExampleScenario.node[93].appl 	NumberofON 	0
scalar RSUExampleScenario.node[93].appl 	NumberofFN 	0.78378378378378
scalar RSUExampleScenario.node[93].veinsmobility 	startTime 	224.2
scalar RSUExampleScenario.node[93].veinsmobility 	totalTime 	225.8
scalar RSUExampleScenario.node[93].veinsmobility 	stopTime 	450
scalar RSUExampleScenario.node[93].veinsmobility 	minSpeed 	0
scalar RSUExampleScenario.node[93].veinsmobility 	maxSpeed 	13.882406452068
scalar RSUExampleScenario.node[93].veinsmobility 	totalDistance 	123.76128584157
scalar RSUExampleScenario.node[93].veinsmobility 	totalCO2Emission 	251.86364139374
scalar RSUExampleScenario.node[94].appl 	meanClusterNodes 	0
scalar RSUExampleScenario.node[94].appl 	meanClusterHeadUtility 	0
scalar RSUExampleScenario.node[94].appl 	NumberofCH 	0.27027027027027
scalar RSUExampleScenario.node[94].appl 	NumberofON 	0
scalar RSUExampleScenario.node[94].appl 	NumberofFN 	0.72972972972973
scalar RSUExampleScenario.node[94].veinsmobility 	startTime 	226.6
scalar RSUExampleScenario.node[94].veinsmobility 	totalTime 	223.4
scalar RSUExampleScenario.node[94].veinsmobility 	stopTime 	450
scalar RSUExampleScenario.node[94].veinsmobility 	minSpeed 	0
scalar RSUExampleScenario.node[94].veinsmobility 	maxSpeed 	13.794990933915
scalar RSUExampleScenario.node[94].veinsmobility 	totalDistance 	112.2908984472
scalar RSUExampleScenario.node[94].veinsmobility 	totalCO2Emission 	245.90793876485
scalar RSUExampleScenario.node[95].appl 	meanClusterNodes 	0
scalar RSUExampleScenario.node[95].appl 	meanClusterHeadUtility 	0
scalar RSUExampleScenario.node[95].appl 	NumberofCH 	0.21621621621622
scalar RSUExampleScenario.node[95].appl 	NumberofON 	0
scalar RSUExampleScenario.node[95].appl 	NumberofFN 	0.78378378378378
scalar RSUExampleScenario.node[95].veinsmobility 	startTime 	229
scalar RSUExampleScenario.node[95].veinsmobility 	totalTime 	221
scalar RSUExampleScenario.node[95].veinsmobility 	stopTime 	450
scalar RSUExampleScenario.node[95].veinsmobility 	minSpeed 	0
scalar RSUExampleScenario.node[95].veinsmobility 	maxSpeed 	13.662622256002
scalar RSUExampleScenario.node[95].veinsmobility 	totalDistance 	99.391740196181
scalar RSUExampleScenario.node[95].veinsmobility 	totalCO2Emission 	242.08171905182
scalar RSUExampleScenario.node[96].appl 	meanClusterNodes 	0
scalar RSUExampleScenario.node[96].appl 	meanClusterHeadUtility 	0
scalar RSUExampleScenario.node[96].appl 	NumberofCH 	0.27027027027027
scalar RSUExampleScenario.node[96].appl 	NumberofON 	0
scalar RSUExampleScenario.node[96].appl 	NumberofFN 	0.72972972972973
scalar RSUExampleScenario.node[96].veinsmobility 	startTime 	231.4
scalar RSUExampleScenario.node[96].veinsmobility 	totalTime 	218.6
scalar RSUExampleScenario.node[96].veinsmobility 	stopTime 	450
scalar RSUExampleScenario.node[96].veinsmobility 	minSpeed 	0
scalar RSUExampleScenario.node[96].veinsmobility 	maxSpeed 	13.834437226995
scalar RSUExampleScenario.node[96].veinsmobility 	totalDistance 	83.471687083129
scalar RSUExampleScenario.node[96].veinsmobility 	totalCO2Emission 	239.85826142793
scalar RSUExampleScenario.node[97].appl 	meanClusterNodes 	0
scalar RSUExampleScenario.node[97].appl 	meanClusterHeadUtility 	0
scalar RSUExampleScenario.node[97].appl 	NumberofCH 	0.21621621621622
scalar RSUExampleScenario.node[97].appl 	NumberofON 	0
scalar RSUExampleScenario.node[97].appl 	NumberofFN 	0.78378378378378
scalar RSUExampleScenario.node[97].veinsmobility 	startTime 	233.8
scalar RSUExampleScenario.node[97].veinsmobility 	totalTime 	216.2
scalar RSUExampleScenario.node[97].veinsmobility 	stopTime 	450
scalar RSUExampleScenario.node[97].veinsmobility 	minSpeed 	0
scalar RSUExampleScenario.node[97].veinsmobility 	maxSpeed 	12.270671268619
scalar RSUExampleScenario.node[97].veinsmobility 	totalDistance 	55.513667271514
scalar RSUExampleScenario.node[97].veinsmobility 	totalCO2Emission 	231.70721914202
scalar RSUExampleScenario.node[98].appl 	meanClusterNodes 	0
scalar RSUExampleScenario.node[98].appl 	meanClusterHeadUtility 	0
scalar RSUExampleScenario.node[98].appl 	NumberofCH 	0.2972972972973
scalar RSUExampleScenario.node[98].appl 	NumberofON 	0
scalar RSUExampleScenario.node[98].appl 	NumberofFN 	0.7027027027027
scalar RSUExampleScenario.node[98].veinsmobility 	startTime 	236.2
scalar RSUExampleScenario.node[98].veinsmobility 	totalTime 	213.8
scalar RSUExampleScenario.node[98].veinsmobility 	stopTime 	450
scalar RSUExampleScenario.node[98].veinsmobility 	minSpeed 	0
scalar RSUExampleScenario.node[98].veinsmobility 	maxSpeed 	7.5460003670776
scalar RSUExampleScenario.node[98].veinsmobility 	totalDistance 	21.261031533641
scalar RSUExampleScenario.node[98].veinsmobility 	totalCO2Emission 	216.25005911621
scalar RSUExampleScenario.node[99].appl 	meanClusterNodes 	0
scalar RSUExampleScenario.node[99].appl 	meanClusterHeadUtility 	0
scalar RSUExampleScenario.node[99].appl 	NumberofCH 	0.27027027027027
scalar RSUExampleScenario.node[99].appl 	NumberofON 	0
scalar RSUExampleScenario.node[99].appl 	NumberofFN 	0.72972972972973
scalar RSUExampleScenario.node[99].veinsmobility 	startTime 	238.6
scalar RSUExampleScenario.node[99].veinsmobility 	totalTime 	211.4
scalar RSUExampleScenario.node[99].veinsmobility 	stopTime 	450
scalar RSUExampleScenario.node[99].veinsmobility 	minSpeed 	0
scalar RSUExampleScenario.node[99].veinsmobility 	maxSpeed 	2.9503849119169
scalar RSUExampleScenario.node[99].veinsmobility 	totalDistance 	3.20078838963
scalar RSUExampleScenario.node[99].veinsmobility 	totalCO2Emission 	206.99890722289
