version 2
run statistic3-519-20150325-02:30:45-17428
attr c 14
attr configname statistic3
attr datetime 20150325-02:30:45
attr experiment statistic3
attr inifile omnetpp.ini
attr iterationvars "$p=1/10, $c=14"
attr iterationvars2 "$p=1/10, $c=14, $repetition=19"
attr measurement "$p=1/10, $c=14"
attr network RSUExampleScenario
attr p 1/10
attr processid 17428
attr repetition 19
attr replication #19
attr resultdir results
attr runnumber 519
attr seedset 519

scalar . 	c 	14
scalar RSUExampleScenario.rsu[0].appl 	NumberofCH 	11
scalar RSUExampleScenario.rsu[0].appl 	NumberofON 	76
scalar RSUExampleScenario.rsu[0].appl 	NumberofFN 	13
scalar RSUExampleScenario.rsu[0].appl 	meanClusterNodes 	6.9090909090909
scalar RSUExampleScenario.rsu[0].appl 	varClusterNodes 	5.5178148747249
scalar RSUExampleScenario.rsu[0].appl 	sumCHutility 	422.37101963703
scalar RSUExampleScenario.rsu[0].appl 	meanCHutility 	38.397365421549
scalar RSUExampleScenario.rsu[0].appl 	varCHutility 	3.0774346190489
scalar RSUExampleScenario.rsu[0].appl 	sumDiffCHutility 	-47.770746062803
scalar RSUExampleScenario.rsu[0].appl 	meanDiffCHutility 	-4.3427950966184
scalar RSUExampleScenario.rsu[0].appl 	varDiffCHutility 	2.9660472157094
scalar RSUExampleScenario.rsu[0].appl 	expectedCHutility 	374.60027357423
scalar RSUExampleScenario.rsu[0].appl 	meanExpectedCHutility 	34.05457032493
scalar RSUExampleScenario.rsu[0].appl 	varExpectedCHutility 	0.46362023094412
scalar RSUExampleScenario.node[0].veinsmobility 	startTime 	0.1
scalar RSUExampleScenario.node[0].veinsmobility 	totalTime 	349.9
scalar RSUExampleScenario.node[0].veinsmobility 	stopTime 	350
scalar RSUExampleScenario.node[0].veinsmobility 	minSpeed 	0
scalar RSUExampleScenario.node[0].veinsmobility 	maxSpeed 	13.999978364143
scalar RSUExampleScenario.node[0].veinsmobility 	totalDistance 	3130.4360135594
scalar RSUExampleScenario.node[0].veinsmobility 	totalCO2Emission 	742.93892834476
scalar RSUExampleScenario.node[1].veinsmobility 	startTime 	2.5
scalar RSUExampleScenario.node[1].veinsmobility 	totalTime 	347.5
scalar RSUExampleScenario.node[1].veinsmobility 	stopTime 	350
scalar RSUExampleScenario.node[1].veinsmobility 	minSpeed 	0
scalar RSUExampleScenario.node[1].veinsmobility 	maxSpeed 	13.999970886377
scalar RSUExampleScenario.node[1].veinsmobility 	totalDistance 	3079.7762855125
scalar RSUExampleScenario.node[1].veinsmobility 	totalCO2Emission 	731.41361236791
scalar RSUExampleScenario.node[10].veinsmobility 	startTime 	24.2
scalar RSUExampleScenario.node[10].veinsmobility 	totalTime 	325.8
scalar RSUExampleScenario.node[10].veinsmobility 	stopTime 	350
scalar RSUExampleScenario.node[10].veinsmobility 	minSpeed 	0
scalar RSUExampleScenario.node[10].veinsmobility 	maxSpeed 	13.999977152273
scalar RSUExampleScenario.node[10].veinsmobility 	totalDistance 	2794.4649952158
scalar RSUExampleScenario.node[10].veinsmobility 	totalCO2Emission 	663.3785617093
scalar RSUExampleScenario.node[11].veinsmobility 	startTime 	26.6
scalar RSUExampleScenario.node[11].veinsmobility 	totalTime 	323.4
scalar RSUExampleScenario.node[11].veinsmobility 	stopTime 	350
scalar RSUExampleScenario.node[11].veinsmobility 	minSpeed 	0
scalar RSUExampleScenario.node[11].veinsmobility 	maxSpeed 	13.999925145309
scalar RSUExampleScenario.node[11].veinsmobility 	totalDistance 	2752.1521110345
scalar RSUExampleScenario.node[11].veinsmobility 	totalCO2Emission 	652.99071644052
scalar RSUExampleScenario.node[12].veinsmobility 	startTime 	29
scalar RSUExampleScenario.node[12].veinsmobility 	totalTime 	321
scalar RSUExampleScenario.node[12].veinsmobility 	stopTime 	350
scalar RSUExampleScenario.node[12].veinsmobility 	minSpeed 	0
scalar RSUExampleScenario.node[12].veinsmobility 	maxSpeed 	13.999952081454
scalar RSUExampleScenario.node[12].veinsmobility 	totalDistance 	2722.8442699305
scalar RSUExampleScenario.node[12].veinsmobility 	totalCO2Emission 	648.34035074153
scalar RSUExampleScenario.node[13].veinsmobility 	startTime 	31.4
scalar RSUExampleScenario.node[13].veinsmobility 	totalTime 	318.6
scalar RSUExampleScenario.node[13].veinsmobility 	stopTime 	350
scalar RSUExampleScenario.node[13].veinsmobility 	minSpeed 	0
scalar RSUExampleScenario.node[13].veinsmobility 	maxSpeed 	13.999951256227
scalar RSUExampleScenario.node[13].veinsmobility 	totalDistance 	2680.2489783866
scalar RSUExampleScenario.node[13].veinsmobility 	totalCO2Emission 	644.74245060473
scalar RSUExampleScenario.node[14].veinsmobility 	startTime 	33.8
scalar RSUExampleScenario.node[14].veinsmobility 	totalTime 	316.2
scalar RSUExampleScenario.node[14].veinsmobility 	stopTime 	350
scalar RSUExampleScenario.node[14].veinsmobility 	minSpeed 	0
scalar RSUExampleScenario.node[14].veinsmobility 	maxSpeed 	13.999992858481
scalar RSUExampleScenario.node[14].veinsmobility 	totalDistance 	2652.8684917926
scalar RSUExampleScenario.node[14].veinsmobility 	totalCO2Emission 	639.21562928849
scalar RSUExampleScenario.node[15].veinsmobility 	startTime 	36.2
scalar RSUExampleScenario.node[15].veinsmobility 	totalTime 	313.8
scalar RSUExampleScenario.node[15].veinsmobility 	stopTime 	350
scalar RSUExampleScenario.node[15].veinsmobility 	minSpeed 	0
scalar RSUExampleScenario.node[15].veinsmobility 	maxSpeed 	13.999947604637
scalar RSUExampleScenario.node[15].veinsmobility 	totalDistance 	2614.5769363374
scalar RSUExampleScenario.node[15].veinsmobility 	totalCO2Emission 	632.21267627153
scalar RSUExampleScenario.node[16].veinsmobility 	startTime 	38.6
scalar RSUExampleScenario.node[16].veinsmobility 	totalTime 	311.4
scalar RSUExampleScenario.node[16].veinsmobility 	stopTime 	350
scalar RSUExampleScenario.node[16].veinsmobility 	minSpeed 	0
scalar RSUExampleScenario.node[16].veinsmobility 	maxSpeed 	13.999767932675
scalar RSUExampleScenario.node[16].veinsmobility 	totalDistance 	2583.9885985401
scalar RSUExampleScenario.node[16].veinsmobility 	totalCO2Emission 	626.59146725793
scalar RSUExampleScenario.node[17].veinsmobility 	startTime 	41
scalar RSUExampleScenario.node[17].veinsmobility 	totalTime 	309
scalar RSUExampleScenario.node[17].veinsmobility 	stopTime 	350
scalar RSUExampleScenario.node[17].veinsmobility 	minSpeed 	0
scalar RSUExampleScenario.node[17].veinsmobility 	maxSpeed 	13.999965076074
scalar RSUExampleScenario.node[17].veinsmobility 	totalDistance 	2539.8585451287
scalar RSUExampleScenario.node[17].veinsmobility 	totalCO2Emission 	619.91411139313
scalar RSUExampleScenario.node[18].veinsmobility 	startTime 	43.4
scalar RSUExampleScenario.node[18].veinsmobility 	totalTime 	306.6
scalar RSUExampleScenario.node[18].veinsmobility 	stopTime 	350
scalar RSUExampleScenario.node[18].veinsmobility 	minSpeed 	0
scalar RSUExampleScenario.node[18].veinsmobility 	maxSpeed 	13.999971440099
scalar RSUExampleScenario.node[18].veinsmobility 	totalDistance 	2510.6931574307
scalar RSUExampleScenario.node[18].veinsmobility 	totalCO2Emission 	618.30141176015
scalar RSUExampleScenario.node[19].veinsmobility 	startTime 	45.8
scalar RSUExampleScenario.node[19].veinsmobility 	totalTime 	304.2
scalar RSUExampleScenario.node[19].veinsmobility 	stopTime 	350
scalar RSUExampleScenario.node[19].veinsmobility 	minSpeed 	0
scalar RSUExampleScenario.node[19].veinsmobility 	maxSpeed 	13.999993817916
scalar RSUExampleScenario.node[19].veinsmobility 	totalDistance 	2469.5711229257
scalar RSUExampleScenario.node[19].veinsmobility 	totalCO2Emission 	606.62280639568
scalar RSUExampleScenario.node[2].veinsmobility 	startTime 	4.9
scalar RSUExampleScenario.node[2].veinsmobility 	totalTime 	345.1
scalar RSUExampleScenario.node[2].veinsmobility 	stopTime 	350
scalar RSUExampleScenario.node[2].veinsmobility 	minSpeed 	0
scalar RSUExampleScenario.node[2].veinsmobility 	maxSpeed 	13.999955284502
scalar RSUExampleScenario.node[2].veinsmobility 	totalDistance 	3039.5082794501
scalar RSUExampleScenario.node[2].veinsmobility 	totalCO2Emission 	721.43947643503
scalar RSUExampleScenario.node[20].veinsmobility 	startTime 	48.3
scalar RSUExampleScenario.node[20].veinsmobility 	totalTime 	301.7
scalar RSUExampleScenario.node[20].veinsmobility 	stopTime 	350
scalar RSUExampleScenario.node[20].veinsmobility 	minSpeed 	0
scalar RSUExampleScenario.node[20].veinsmobility 	maxSpeed 	13.999902409664
scalar RSUExampleScenario.node[20].veinsmobility 	totalDistance 	2440.103466965
scalar RSUExampleScenario.node[20].veinsmobility 	totalCO2Emission 	604.43905982895
scalar RSUExampleScenario.node[21].veinsmobility 	startTime 	50.7
scalar RSUExampleScenario.node[21].veinsmobility 	totalTime 	299.3
scalar RSUExampleScenario.node[21].veinsmobility 	stopTime 	350
scalar RSUExampleScenario.node[21].veinsmobility 	minSpeed 	0
scalar RSUExampleScenario.node[21].veinsmobility 	maxSpeed 	13.999973347436
scalar RSUExampleScenario.node[21].veinsmobility 	totalDistance 	2401.7819466878
scalar RSUExampleScenario.node[21].veinsmobility 	totalCO2Emission 	597.86224346442
scalar RSUExampleScenario.node[22].veinsmobility 	startTime 	53.1
scalar RSUExampleScenario.node[22].veinsmobility 	totalTime 	296.9
scalar RSUExampleScenario.node[22].veinsmobility 	stopTime 	350
scalar RSUExampleScenario.node[22].veinsmobility 	minSpeed 	0
scalar RSUExampleScenario.node[22].veinsmobility 	maxSpeed 	13.99999110996
scalar RSUExampleScenario.node[22].veinsmobility 	totalDistance 	2373.0098554869
scalar RSUExampleScenario.node[22].veinsmobility 	totalCO2Emission 	590.52628204712
scalar RSUExampleScenario.node[23].veinsmobility 	startTime 	55.5
scalar RSUExampleScenario.node[23].veinsmobility 	totalTime 	294.5
scalar RSUExampleScenario.node[23].veinsmobility 	stopTime 	350
scalar RSUExampleScenario.node[23].veinsmobility 	minSpeed 	0
scalar RSUExampleScenario.node[23].veinsmobility 	maxSpeed 	13.999969668726
scalar RSUExampleScenario.node[23].veinsmobility 	totalDistance 	2334.9167706799
scalar RSUExampleScenario.node[23].veinsmobility 	totalCO2Emission 	587.44745358593
scalar RSUExampleScenario.node[24].veinsmobility 	startTime 	57.9
scalar RSUExampleScenario.node[24].veinsmobility 	totalTime 	292.1
scalar RSUExampleScenario.node[24].veinsmobility 	stopTime 	350
scalar RSUExampleScenario.node[24].veinsmobility 	minSpeed 	0
scalar RSUExampleScenario.node[24].veinsmobility 	maxSpeed 	13.999571317998
scalar RSUExampleScenario.node[24].veinsmobility 	totalDistance 	2306.77196657
scalar RSUExampleScenario.node[24].veinsmobility 	totalCO2Emission 	580.47417836303
scalar RSUExampleScenario.node[25].veinsmobility 	startTime 	60.3
scalar RSUExampleScenario.node[25].veinsmobility 	totalTime 	289.7
scalar RSUExampleScenario.node[25].veinsmobility 	stopTime 	350
scalar RSUExampleScenario.node[25].veinsmobility 	minSpeed 	0
scalar RSUExampleScenario.node[25].veinsmobility 	maxSpeed 	13.999954842529
scalar RSUExampleScenario.node[25].veinsmobility 	totalDistance 	2266.8929723369
scalar RSUExampleScenario.node[25].veinsmobility 	totalCO2Emission 	573.115733921
scalar RSUExampleScenario.node[26].veinsmobility 	startTime 	62.7
scalar RSUExampleScenario.node[26].veinsmobility 	totalTime 	287.3
scalar RSUExampleScenario.node[26].veinsmobility 	stopTime 	350
scalar RSUExampleScenario.node[26].veinsmobility 	minSpeed 	0
scalar RSUExampleScenario.node[26].veinsmobility 	maxSpeed 	13.999840621632
scalar RSUExampleScenario.node[26].veinsmobility 	totalDistance 	2238.9053636868
scalar RSUExampleScenario.node[26].veinsmobility 	totalCO2Emission 	571.19652182756
scalar RSUExampleScenario.node[27].veinsmobility 	startTime 	65.1
scalar RSUExampleScenario.node[27].veinsmobility 	totalTime 	284.9
scalar RSUExampleScenario.node[27].veinsmobility 	stopTime 	350
scalar RSUExampleScenario.node[27].veinsmobility 	minSpeed 	0
scalar RSUExampleScenario.node[27].veinsmobility 	maxSpeed 	13.999789612542
scalar RSUExampleScenario.node[27].veinsmobility 	totalDistance 	2200.2890625431
scalar RSUExampleScenario.node[27].veinsmobility 	totalCO2Emission 	565.66819578959
scalar RSUExampleScenario.node[28].veinsmobility 	startTime 	67.5
scalar RSUExampleScenario.node[28].veinsmobility 	totalTime 	282.5
scalar RSUExampleScenario.node[28].veinsmobility 	stopTime 	350
scalar RSUExampleScenario.node[28].veinsmobility 	minSpeed 	0
scalar RSUExampleScenario.node[28].veinsmobility 	maxSpeed 	13.999934233089
scalar RSUExampleScenario.node[28].veinsmobility 	totalDistance 	2169.4074175786
scalar RSUExampleScenario.node[28].veinsmobility 	totalCO2Emission 	555.36677601037
scalar RSUExampleScenario.node[29].veinsmobility 	startTime 	69.9
scalar RSUExampleScenario.node[29].veinsmobility 	totalTime 	280.1
scalar RSUExampleScenario.node[29].veinsmobility 	stopTime 	350
scalar RSUExampleScenario.node[29].veinsmobility 	minSpeed 	0
scalar RSUExampleScenario.node[29].veinsmobility 	maxSpeed 	13.999813885831
scalar RSUExampleScenario.node[29].veinsmobility 	totalDistance 	2133.1215446921
scalar RSUExampleScenario.node[29].veinsmobility 	totalCO2Emission 	548.72781623765
scalar RSUExampleScenario.node[3].veinsmobility 	startTime 	7.3
scalar RSUExampleScenario.node[3].veinsmobility 	totalTime 	342.7
scalar RSUExampleScenario.node[3].veinsmobility 	stopTime 	350
scalar RSUExampleScenario.node[3].veinsmobility 	minSpeed 	0
scalar RSUExampleScenario.node[3].veinsmobility 	maxSpeed 	13.999882055505
scalar RSUExampleScenario.node[3].veinsmobility 	totalDistance 	2992.3774302391
scalar RSUExampleScenario.node[3].veinsmobility 	totalCO2Emission 	714.97211977614
scalar RSUExampleScenario.node[30].veinsmobility 	startTime 	72.4
scalar RSUExampleScenario.node[30].veinsmobility 	totalTime 	277.6
scalar RSUExampleScenario.node[30].veinsmobility 	stopTime 	350
scalar RSUExampleScenario.node[30].veinsmobility 	minSpeed 	0
scalar RSUExampleScenario.node[30].veinsmobility 	maxSpeed 	13.999765406116
scalar RSUExampleScenario.node[30].veinsmobility 	totalDistance 	2101.4532213933
scalar RSUExampleScenario.node[30].veinsmobility 	totalCO2Emission 	546.73158296221
scalar RSUExampleScenario.node[31].veinsmobility 	startTime 	74.8
scalar RSUExampleScenario.node[31].veinsmobility 	totalTime 	275.2
scalar RSUExampleScenario.node[31].veinsmobility 	stopTime 	350
scalar RSUExampleScenario.node[31].veinsmobility 	minSpeed 	0
scalar RSUExampleScenario.node[31].veinsmobility 	maxSpeed 	13.999959290016
scalar RSUExampleScenario.node[31].veinsmobility 	totalDistance 	2066.6299737341
scalar RSUExampleScenario.node[31].veinsmobility 	totalCO2Emission 	539.33361900687
scalar RSUExampleScenario.node[32].veinsmobility 	startTime 	77.2
scalar RSUExampleScenario.node[32].veinsmobility 	totalTime 	272.8
scalar RSUExampleScenario.node[32].veinsmobility 	stopTime 	350
scalar RSUExampleScenario.node[32].veinsmobility 	minSpeed 	0
scalar RSUExampleScenario.node[32].veinsmobility 	maxSpeed 	13.999875136667
scalar RSUExampleScenario.node[32].veinsmobility 	totalDistance 	2034.2721576863
scalar RSUExampleScenario.node[32].veinsmobility 	totalCO2Emission 	534.16357749226
scalar RSUExampleScenario.node[33].veinsmobility 	startTime 	79.6
scalar RSUExampleScenario.node[33].veinsmobility 	totalTime 	270.4
scalar RSUExampleScenario.node[33].veinsmobility 	stopTime 	350
scalar RSUExampleScenario.node[33].veinsmobility 	minSpeed 	0
scalar RSUExampleScenario.node[33].veinsmobility 	maxSpeed 	13.999982649817
scalar RSUExampleScenario.node[33].veinsmobility 	totalDistance 	1997.5443019911
scalar RSUExampleScenario.node[33].veinsmobility 	totalCO2Emission 	529.71297799471
scalar RSUExampleScenario.node[34].veinsmobility 	startTime 	82
scalar RSUExampleScenario.node[34].veinsmobility 	totalTime 	268
scalar RSUExampleScenario.node[34].veinsmobility 	stopTime 	350
scalar RSUExampleScenario.node[34].veinsmobility 	minSpeed 	0
scalar RSUExampleScenario.node[34].veinsmobility 	maxSpeed 	13.999797893651
scalar RSUExampleScenario.node[34].veinsmobility 	totalDistance 	1964.9560094491
scalar RSUExampleScenario.node[34].veinsmobility 	totalCO2Emission 	527.1420999775
scalar RSUExampleScenario.node[35].veinsmobility 	startTime 	84.4
scalar RSUExampleScenario.node[35].veinsmobility 	totalTime 	265.6
scalar RSUExampleScenario.node[35].veinsmobility 	stopTime 	350
scalar RSUExampleScenario.node[35].veinsmobility 	minSpeed 	0
scalar RSUExampleScenario.node[35].veinsmobility 	maxSpeed 	13.999991291054
scalar RSUExampleScenario.node[35].veinsmobility 	totalDistance 	1930.5902157404
scalar RSUExampleScenario.node[35].veinsmobility 	totalCO2Emission 	518.25508644019
scalar RSUExampleScenario.node[36].veinsmobility 	startTime 	86.8
scalar RSUExampleScenario.node[36].veinsmobility 	totalTime 	263.2
scalar RSUExampleScenario.node[36].veinsmobility 	stopTime 	350
scalar RSUExampleScenario.node[36].veinsmobility 	minSpeed 	0
scalar RSUExampleScenario.node[36].veinsmobility 	maxSpeed 	13.999991381585
scalar RSUExampleScenario.node[36].veinsmobility 	totalDistance 	1897.3676897306
scalar RSUExampleScenario.node[36].veinsmobility 	totalCO2Emission 	512.72017455621
scalar RSUExampleScenario.node[37].veinsmobility 	startTime 	89.2
scalar RSUExampleScenario.node[37].veinsmobility 	totalTime 	260.8
scalar RSUExampleScenario.node[37].veinsmobility 	stopTime 	350
scalar RSUExampleScenario.node[37].veinsmobility 	minSpeed 	0
scalar RSUExampleScenario.node[37].veinsmobility 	maxSpeed 	13.999885661087
scalar RSUExampleScenario.node[37].veinsmobility 	totalDistance 	1864.2094876983
scalar RSUExampleScenario.node[37].veinsmobility 	totalCO2Emission 	507.77077444318
scalar RSUExampleScenario.node[38].veinsmobility 	startTime 	91.6
scalar RSUExampleScenario.node[38].veinsmobility 	totalTime 	258.4
scalar RSUExampleScenario.node[38].veinsmobility 	stopTime 	350
scalar RSUExampleScenario.node[38].veinsmobility 	minSpeed 	0
scalar RSUExampleScenario.node[38].veinsmobility 	maxSpeed 	13.999952457019
scalar RSUExampleScenario.node[38].veinsmobility 	totalDistance 	1831.3201128186
scalar RSUExampleScenario.node[38].veinsmobility 	totalCO2Emission 	505.66800839141
scalar RSUExampleScenario.node[39].veinsmobility 	startTime 	94
scalar RSUExampleScenario.node[39].veinsmobility 	totalTime 	256
scalar RSUExampleScenario.node[39].veinsmobility 	stopTime 	350
scalar RSUExampleScenario.node[39].veinsmobility 	minSpeed 	0
scalar RSUExampleScenario.node[39].veinsmobility 	maxSpeed 	13.999983131047
scalar RSUExampleScenario.node[39].veinsmobility 	totalDistance 	1795.9516869518
scalar RSUExampleScenario.node[39].veinsmobility 	totalCO2Emission 	495.04335019026
scalar RSUExampleScenario.node[4].veinsmobility 	startTime 	9.7
scalar RSUExampleScenario.node[4].veinsmobility 	totalTime 	340.3
scalar RSUExampleScenario.node[4].veinsmobility 	stopTime 	350
scalar RSUExampleScenario.node[4].veinsmobility 	minSpeed 	0
scalar RSUExampleScenario.node[4].veinsmobility 	maxSpeed 	13.999852900959
scalar RSUExampleScenario.node[4].veinsmobility 	totalDistance 	2949.7386247514
scalar RSUExampleScenario.node[4].veinsmobility 	totalCO2Emission 	702.23295274253
scalar RSUExampleScenario.node[40].veinsmobility 	startTime 	96.5
scalar RSUExampleScenario.node[40].veinsmobility 	totalTime 	253.5
scalar RSUExampleScenario.node[40].veinsmobility 	stopTime 	350
scalar RSUExampleScenario.node[40].veinsmobility 	minSpeed 	0
scalar RSUExampleScenario.node[40].veinsmobility 	maxSpeed 	13.99897229084
scalar RSUExampleScenario.node[40].veinsmobility 	totalDistance 	1762.8775013446
scalar RSUExampleScenario.node[40].veinsmobility 	totalCO2Emission 	489.32641637301
scalar RSUExampleScenario.node[41].veinsmobility 	startTime 	98.9
scalar RSUExampleScenario.node[41].veinsmobility 	totalTime 	251.1
scalar RSUExampleScenario.node[41].veinsmobility 	stopTime 	350
scalar RSUExampleScenario.node[41].veinsmobility 	minSpeed 	0
scalar RSUExampleScenario.node[41].veinsmobility 	maxSpeed 	13.999945325761
scalar RSUExampleScenario.node[41].veinsmobility 	totalDistance 	1729.9496159389
scalar RSUExampleScenario.node[41].veinsmobility 	totalCO2Emission 	487.40870907312
scalar RSUExampleScenario.node[42].veinsmobility 	startTime 	101.3
scalar RSUExampleScenario.node[42].veinsmobility 	totalTime 	248.7
scalar RSUExampleScenario.node[42].veinsmobility 	stopTime 	350
scalar RSUExampleScenario.node[42].veinsmobility 	minSpeed 	0
scalar RSUExampleScenario.node[42].veinsmobility 	maxSpeed 	13.999781996391
scalar RSUExampleScenario.node[42].veinsmobility 	totalDistance 	1695.0952417239
scalar RSUExampleScenario.node[42].veinsmobility 	totalCO2Emission 	480.58580215287
scalar RSUExampleScenario.node[43].veinsmobility 	startTime 	103.7
scalar RSUExampleScenario.node[43].veinsmobility 	totalTime 	246.3
scalar RSUExampleScenario.node[43].veinsmobility 	stopTime 	350
scalar RSUExampleScenario.node[43].veinsmobility 	minSpeed 	0
scalar RSUExampleScenario.node[43].veinsmobility 	maxSpeed 	13.99994630611
scalar RSUExampleScenario.node[43].veinsmobility 	totalDistance 	1662.2151233483
scalar RSUExampleScenario.node[43].veinsmobility 	totalCO2Emission 	471.15546334106
scalar RSUExampleScenario.node[44].veinsmobility 	startTime 	106.1
scalar RSUExampleScenario.node[44].veinsmobility 	totalTime 	243.9
scalar RSUExampleScenario.node[44].veinsmobility 	stopTime 	350
scalar RSUExampleScenario.node[44].veinsmobility 	minSpeed 	0
scalar RSUExampleScenario.node[44].veinsmobility 	maxSpeed 	13.999991922202
scalar RSUExampleScenario.node[44].veinsmobility 	totalDistance 	1628.7994415559
scalar RSUExampleScenario.node[44].veinsmobility 	totalCO2Emission 	468.82628740142
scalar RSUExampleScenario.node[45].veinsmobility 	startTime 	108.5
scalar RSUExampleScenario.node[45].veinsmobility 	totalTime 	241.5
scalar RSUExampleScenario.node[45].veinsmobility 	stopTime 	350
scalar RSUExampleScenario.node[45].veinsmobility 	minSpeed 	0
scalar RSUExampleScenario.node[45].veinsmobility 	maxSpeed 	13.999977239959
scalar RSUExampleScenario.node[45].veinsmobility 	totalDistance 	1595.3949629534
scalar RSUExampleScenario.node[45].veinsmobility 	totalCO2Emission 	460.13725142236
scalar RSUExampleScenario.node[46].veinsmobility 	startTime 	110.9
scalar RSUExampleScenario.node[46].veinsmobility 	totalTime 	239.1
scalar RSUExampleScenario.node[46].veinsmobility 	stopTime 	350
scalar RSUExampleScenario.node[46].veinsmobility 	minSpeed 	0
scalar RSUExampleScenario.node[46].veinsmobility 	maxSpeed 	13.999969042905
scalar RSUExampleScenario.node[46].veinsmobility 	totalDistance 	1561.0221981499
scalar RSUExampleScenario.node[46].veinsmobility 	totalCO2Emission 	456.64761910322
scalar RSUExampleScenario.node[47].veinsmobility 	startTime 	113.3
scalar RSUExampleScenario.node[47].veinsmobility 	totalTime 	236.7
scalar RSUExampleScenario.node[47].veinsmobility 	stopTime 	350
scalar RSUExampleScenario.node[47].veinsmobility 	minSpeed 	0
scalar RSUExampleScenario.node[47].veinsmobility 	maxSpeed 	13.999817646265
scalar RSUExampleScenario.node[47].veinsmobility 	totalDistance 	1529.2011808664
scalar RSUExampleScenario.node[47].veinsmobility 	totalCO2Emission 	447.98171162349
scalar RSUExampleScenario.node[48].veinsmobility 	startTime 	115.7
scalar RSUExampleScenario.node[48].veinsmobility 	totalTime 	234.3
scalar RSUExampleScenario.node[48].veinsmobility 	stopTime 	350
scalar RSUExampleScenario.node[48].veinsmobility 	minSpeed 	0
scalar RSUExampleScenario.node[48].veinsmobility 	maxSpeed 	13.999979278024
scalar RSUExampleScenario.node[48].veinsmobility 	totalDistance 	1494.8790728311
scalar RSUExampleScenario.node[48].veinsmobility 	totalCO2Emission 	443.23439246261
scalar RSUExampleScenario.node[49].veinsmobility 	startTime 	118.1
scalar RSUExampleScenario.node[49].veinsmobility 	totalTime 	231.9
scalar RSUExampleScenario.node[49].veinsmobility 	stopTime 	350
scalar RSUExampleScenario.node[49].veinsmobility 	minSpeed 	0
scalar RSUExampleScenario.node[49].veinsmobility 	maxSpeed 	13.999963181389
scalar RSUExampleScenario.node[49].veinsmobility 	totalDistance 	1461.3468851224
scalar RSUExampleScenario.node[49].veinsmobility 	totalCO2Emission 	439.46031740991
scalar RSUExampleScenario.node[5].veinsmobility 	startTime 	12.1
scalar RSUExampleScenario.node[5].veinsmobility 	totalTime 	337.9
scalar RSUExampleScenario.node[5].veinsmobility 	stopTime 	350
scalar RSUExampleScenario.node[5].veinsmobility 	minSpeed 	0
scalar RSUExampleScenario.node[5].veinsmobility 	maxSpeed 	13.999996862027
scalar RSUExampleScenario.node[5].veinsmobility 	totalDistance 	2913.8914744156
scalar RSUExampleScenario.node[5].veinsmobility 	totalCO2Emission 	685.06257596902
scalar RSUExampleScenario.node[50].veinsmobility 	startTime 	120.6
scalar RSUExampleScenario.node[50].veinsmobility 	totalTime 	229.4
scalar RSUExampleScenario.node[50].veinsmobility 	stopTime 	350
scalar RSUExampleScenario.node[50].veinsmobility 	minSpeed 	0
scalar RSUExampleScenario.node[50].veinsmobility 	maxSpeed 	13.999551497009
scalar RSUExampleScenario.node[50].veinsmobility 	totalDistance 	1427.8999863254
scalar RSUExampleScenario.node[50].veinsmobility 	totalCO2Emission 	435.20072808399
scalar RSUExampleScenario.node[51].veinsmobility 	startTime 	123
scalar RSUExampleScenario.node[51].veinsmobility 	totalTime 	227
scalar RSUExampleScenario.node[51].veinsmobility 	stopTime 	350
scalar RSUExampleScenario.node[51].veinsmobility 	minSpeed 	0
scalar RSUExampleScenario.node[51].veinsmobility 	maxSpeed 	13.999717669056
scalar RSUExampleScenario.node[51].veinsmobility 	totalDistance 	1393.4814289347
scalar RSUExampleScenario.node[51].veinsmobility 	totalCO2Emission 	430.79355670035
scalar RSUExampleScenario.node[52].veinsmobility 	startTime 	125.4
scalar RSUExampleScenario.node[52].veinsmobility 	totalTime 	224.6
scalar RSUExampleScenario.node[52].veinsmobility 	stopTime 	350
scalar RSUExampleScenario.node[52].veinsmobility 	minSpeed 	0
scalar RSUExampleScenario.node[52].veinsmobility 	maxSpeed 	13.999714509109
scalar RSUExampleScenario.node[52].veinsmobility 	totalDistance 	1362.0589710141
scalar RSUExampleScenario.node[52].veinsmobility 	totalCO2Emission 	424.00691390392
scalar RSUExampleScenario.node[53].veinsmobility 	startTime 	127.8
scalar RSUExampleScenario.node[53].veinsmobility 	totalTime 	222.2
scalar RSUExampleScenario.node[53].veinsmobility 	stopTime 	350
scalar RSUExampleScenario.node[53].veinsmobility 	minSpeed 	0
scalar RSUExampleScenario.node[53].veinsmobility 	maxSpeed 	13.999810233696
scalar RSUExampleScenario.node[53].veinsmobility 	totalDistance 	1326.0895857967
scalar RSUExampleScenario.node[53].veinsmobility 	totalCO2Emission 	414.71917007914
scalar RSUExampleScenario.node[54].veinsmobility 	startTime 	130.2
scalar RSUExampleScenario.node[54].veinsmobility 	totalTime 	219.8
scalar RSUExampleScenario.node[54].veinsmobility 	stopTime 	350
scalar RSUExampleScenario.node[54].veinsmobility 	minSpeed 	0
scalar RSUExampleScenario.node[54].veinsmobility 	maxSpeed 	13.999420726274
scalar RSUExampleScenario.node[54].veinsmobility 	totalDistance 	1292.0920962606
scalar RSUExampleScenario.node[54].veinsmobility 	totalCO2Emission 	409.5064063668
scalar RSUExampleScenario.node[55].veinsmobility 	startTime 	132.6
scalar RSUExampleScenario.node[55].veinsmobility 	totalTime 	217.4
scalar RSUExampleScenario.node[55].veinsmobility 	stopTime 	350
scalar RSUExampleScenario.node[55].veinsmobility 	minSpeed 	0
scalar RSUExampleScenario.node[55].veinsmobility 	maxSpeed 	13.999827262796
scalar RSUExampleScenario.node[55].veinsmobility 	totalDistance 	1259.3947208078
scalar RSUExampleScenario.node[55].veinsmobility 	totalCO2Emission 	406.35506536959
scalar RSUExampleScenario.node[56].veinsmobility 	startTime 	135
scalar RSUExampleScenario.node[56].veinsmobility 	totalTime 	215
scalar RSUExampleScenario.node[56].veinsmobility 	stopTime 	350
scalar RSUExampleScenario.node[56].veinsmobility 	minSpeed 	0
scalar RSUExampleScenario.node[56].veinsmobility 	maxSpeed 	13.999960282533
scalar RSUExampleScenario.node[56].veinsmobility 	totalDistance 	1226.2292903508
scalar RSUExampleScenario.node[56].veinsmobility 	totalCO2Emission 	398.89427812775
scalar RSUExampleScenario.node[57].veinsmobility 	startTime 	137.4
scalar RSUExampleScenario.node[57].veinsmobility 	totalTime 	212.6
scalar RSUExampleScenario.node[57].veinsmobility 	stopTime 	350
scalar RSUExampleScenario.node[57].veinsmobility 	minSpeed 	0
scalar RSUExampleScenario.node[57].veinsmobility 	maxSpeed 	13.999906730237
scalar RSUExampleScenario.node[57].veinsmobility 	totalDistance 	1192.3025706939
scalar RSUExampleScenario.node[57].veinsmobility 	totalCO2Emission 	394.15572659936
scalar RSUExampleScenario.node[58].veinsmobility 	startTime 	139.8
scalar RSUExampleScenario.node[58].veinsmobility 	totalTime 	210.2
scalar RSUExampleScenario.node[58].veinsmobility 	stopTime 	350
scalar RSUExampleScenario.node[58].veinsmobility 	minSpeed 	0
scalar RSUExampleScenario.node[58].veinsmobility 	maxSpeed 	13.999051323966
scalar RSUExampleScenario.node[58].veinsmobility 	totalDistance 	1159.8068185842
scalar RSUExampleScenario.node[58].veinsmobility 	totalCO2Emission 	386.82600471399
scalar RSUExampleScenario.node[59].veinsmobility 	startTime 	142.2
scalar RSUExampleScenario.node[59].veinsmobility 	totalTime 	207.8
scalar RSUExampleScenario.node[59].veinsmobility 	stopTime 	350
scalar RSUExampleScenario.node[59].veinsmobility 	minSpeed 	0
scalar RSUExampleScenario.node[59].veinsmobility 	maxSpeed 	13.999937408685
scalar RSUExampleScenario.node[59].veinsmobility 	totalDistance 	1127.047189132
scalar RSUExampleScenario.node[59].veinsmobility 	totalCO2Emission 	382.03421207256
scalar RSUExampleScenario.node[6].veinsmobility 	startTime 	14.5
scalar RSUExampleScenario.node[6].veinsmobility 	totalTime 	335.5
scalar RSUExampleScenario.node[6].veinsmobility 	stopTime 	350
scalar RSUExampleScenario.node[6].veinsmobility 	minSpeed 	0
scalar RSUExampleScenario.node[6].veinsmobility 	maxSpeed 	13.999966605303
scalar RSUExampleScenario.node[6].veinsmobility 	totalDistance 	2905.6954242367
scalar RSUExampleScenario.node[6].veinsmobility 	totalCO2Emission 	678.46224175481
scalar RSUExampleScenario.node[60].veinsmobility 	startTime 	144.7
scalar RSUExampleScenario.node[60].veinsmobility 	totalTime 	205.3
scalar RSUExampleScenario.node[60].veinsmobility 	stopTime 	350
scalar RSUExampleScenario.node[60].veinsmobility 	minSpeed 	0
scalar RSUExampleScenario.node[60].veinsmobility 	maxSpeed 	13.999571807249
scalar RSUExampleScenario.node[60].veinsmobility 	totalDistance 	1090.7201295044
scalar RSUExampleScenario.node[60].veinsmobility 	totalCO2Emission 	375.14232659905
scalar RSUExampleScenario.node[61].veinsmobility 	startTime 	147.1
scalar RSUExampleScenario.node[61].veinsmobility 	totalTime 	202.9
scalar RSUExampleScenario.node[61].veinsmobility 	stopTime 	350
scalar RSUExampleScenario.node[61].veinsmobility 	minSpeed 	0
scalar RSUExampleScenario.node[61].veinsmobility 	maxSpeed 	13.999927287071
scalar RSUExampleScenario.node[61].veinsmobility 	totalDistance 	1056.476230494
scalar RSUExampleScenario.node[61].veinsmobility 	totalCO2Emission 	370.62535836614
scalar RSUExampleScenario.node[62].veinsmobility 	startTime 	149.5
scalar RSUExampleScenario.node[62].veinsmobility 	totalTime 	200.5
scalar RSUExampleScenario.node[62].veinsmobility 	stopTime 	350
scalar RSUExampleScenario.node[62].veinsmobility 	minSpeed 	0
scalar RSUExampleScenario.node[62].veinsmobility 	maxSpeed 	13.999907674841
scalar RSUExampleScenario.node[62].veinsmobility 	totalDistance 	1023.1452753863
scalar RSUExampleScenario.node[62].veinsmobility 	totalCO2Emission 	365.34218949121
scalar RSUExampleScenario.node[63].veinsmobility 	startTime 	151.9
scalar RSUExampleScenario.node[63].veinsmobility 	totalTime 	198.1
scalar RSUExampleScenario.node[63].veinsmobility 	stopTime 	350
scalar RSUExampleScenario.node[63].veinsmobility 	minSpeed 	0
scalar RSUExampleScenario.node[63].veinsmobility 	maxSpeed 	13.999942304774
scalar RSUExampleScenario.node[63].veinsmobility 	totalDistance 	984.94453521089
scalar RSUExampleScenario.node[63].veinsmobility 	totalCO2Emission 	355.05131763547
scalar RSUExampleScenario.node[64].veinsmobility 	startTime 	154.3
scalar RSUExampleScenario.node[64].veinsmobility 	totalTime 	195.7
scalar RSUExampleScenario.node[64].veinsmobility 	stopTime 	350
scalar RSUExampleScenario.node[64].veinsmobility 	minSpeed 	0
scalar RSUExampleScenario.node[64].veinsmobility 	maxSpeed 	13.99999262569
scalar RSUExampleScenario.node[64].veinsmobility 	totalDistance 	952.58637369282
scalar RSUExampleScenario.node[64].veinsmobility 	totalCO2Emission 	337.01515588324
scalar RSUExampleScenario.node[65].veinsmobility 	startTime 	156.7
scalar RSUExampleScenario.node[65].veinsmobility 	totalTime 	193.3
scalar RSUExampleScenario.node[65].veinsmobility 	stopTime 	350
scalar RSUExampleScenario.node[65].veinsmobility 	minSpeed 	0
scalar RSUExampleScenario.node[65].veinsmobility 	maxSpeed 	13.999685411861
scalar RSUExampleScenario.node[65].veinsmobility 	totalDistance 	940.13842200037
scalar RSUExampleScenario.node[65].veinsmobility 	totalCO2Emission 	329.53645002033
scalar RSUExampleScenario.node[66].veinsmobility 	startTime 	159.1
scalar RSUExampleScenario.node[66].veinsmobility 	totalTime 	190.9
scalar RSUExampleScenario.node[66].veinsmobility 	stopTime 	350
scalar RSUExampleScenario.node[66].veinsmobility 	minSpeed 	0
scalar RSUExampleScenario.node[66].veinsmobility 	maxSpeed 	13.999877589282
scalar RSUExampleScenario.node[66].veinsmobility 	totalDistance 	927.65524792417
scalar RSUExampleScenario.node[66].veinsmobility 	totalCO2Emission 	327.59398313218
scalar RSUExampleScenario.node[67].veinsmobility 	startTime 	161.5
scalar RSUExampleScenario.node[67].veinsmobility 	totalTime 	188.5
scalar RSUExampleScenario.node[67].veinsmobility 	stopTime 	350
scalar RSUExampleScenario.node[67].veinsmobility 	minSpeed 	0
scalar RSUExampleScenario.node[67].veinsmobility 	maxSpeed 	13.999863933458
scalar RSUExampleScenario.node[67].veinsmobility 	totalDistance 	912.31194266661
scalar RSUExampleScenario.node[67].veinsmobility 	totalCO2Emission 	324.39525479968
scalar RSUExampleScenario.node[68].veinsmobility 	startTime 	163.9
scalar RSUExampleScenario.node[68].veinsmobility 	totalTime 	186.1
scalar RSUExampleScenario.node[68].veinsmobility 	stopTime 	350
scalar RSUExampleScenario.node[68].veinsmobility 	minSpeed 	0
scalar RSUExampleScenario.node[68].veinsmobility 	maxSpeed 	13.999453951621
scalar RSUExampleScenario.node[68].veinsmobility 	totalDistance 	892.48534448067
scalar RSUExampleScenario.node[68].veinsmobility 	totalCO2Emission 	320.28251744587
scalar RSUExampleScenario.node[69].veinsmobility 	startTime 	166.3
scalar RSUExampleScenario.node[69].veinsmobility 	totalTime 	183.7
scalar RSUExampleScenario.node[69].veinsmobility 	stopTime 	350
scalar RSUExampleScenario.node[69].veinsmobility 	minSpeed 	0
scalar RSUExampleScenario.node[69].veinsmobility 	maxSpeed 	13.999944500111
scalar RSUExampleScenario.node[69].veinsmobility 	totalDistance 	859.54699629292
scalar RSUExampleScenario.node[69].veinsmobility 	totalCO2Emission 	315.56359488123
scalar RSUExampleScenario.node[7].veinsmobility 	startTime 	16.9
scalar RSUExampleScenario.node[7].veinsmobility 	totalTime 	333.1
scalar RSUExampleScenario.node[7].veinsmobility 	stopTime 	350
scalar RSUExampleScenario.node[7].veinsmobility 	minSpeed 	0
scalar RSUExampleScenario.node[7].veinsmobility 	maxSpeed 	13.999985663933
scalar RSUExampleScenario.node[7].veinsmobility 	totalDistance 	2885.4562108379
scalar RSUExampleScenario.node[7].veinsmobility 	totalCO2Emission 	678.58562880314
scalar RSUExampleScenario.node[70].veinsmobility 	startTime 	168.8
scalar RSUExampleScenario.node[70].veinsmobility 	totalTime 	181.2
scalar RSUExampleScenario.node[70].veinsmobility 	stopTime 	350
scalar RSUExampleScenario.node[70].veinsmobility 	minSpeed 	0
scalar RSUExampleScenario.node[70].veinsmobility 	maxSpeed 	13.999928719443
scalar RSUExampleScenario.node[70].veinsmobility 	totalDistance 	825.21971228364
scalar RSUExampleScenario.node[70].veinsmobility 	totalCO2Emission 	311.75685508015
scalar RSUExampleScenario.node[71].veinsmobility 	startTime 	171.2
scalar RSUExampleScenario.node[71].veinsmobility 	totalTime 	178.8
scalar RSUExampleScenario.node[71].veinsmobility 	stopTime 	350
scalar RSUExampleScenario.node[71].veinsmobility 	minSpeed 	0
scalar RSUExampleScenario.node[71].veinsmobility 	maxSpeed 	13.999631887774
scalar RSUExampleScenario.node[71].veinsmobility 	totalDistance 	791.09280087307
scalar RSUExampleScenario.node[71].veinsmobility 	totalCO2Emission 	304.54216920104
scalar RSUExampleScenario.node[72].veinsmobility 	startTime 	173.6
scalar RSUExampleScenario.node[72].veinsmobility 	totalTime 	176.4
scalar RSUExampleScenario.node[72].veinsmobility 	stopTime 	350
scalar RSUExampleScenario.node[72].veinsmobility 	minSpeed 	0
scalar RSUExampleScenario.node[72].veinsmobility 	maxSpeed 	13.99989326946
scalar RSUExampleScenario.node[72].veinsmobility 	totalDistance 	758.68091097068
scalar RSUExampleScenario.node[72].veinsmobility 	totalCO2Emission 	297.30913594184
scalar RSUExampleScenario.node[73].veinsmobility 	startTime 	176
scalar RSUExampleScenario.node[73].veinsmobility 	totalTime 	174
scalar RSUExampleScenario.node[73].veinsmobility 	stopTime 	350
scalar RSUExampleScenario.node[73].veinsmobility 	minSpeed 	0
scalar RSUExampleScenario.node[73].veinsmobility 	maxSpeed 	13.999576947994
scalar RSUExampleScenario.node[73].veinsmobility 	totalDistance 	724.24690811381
scalar RSUExampleScenario.node[73].veinsmobility 	totalCO2Emission 	295.62445622083
scalar RSUExampleScenario.node[74].veinsmobility 	startTime 	178.4
scalar RSUExampleScenario.node[74].veinsmobility 	totalTime 	171.6
scalar RSUExampleScenario.node[74].veinsmobility 	stopTime 	350
scalar RSUExampleScenario.node[74].veinsmobility 	minSpeed 	0
scalar RSUExampleScenario.node[74].veinsmobility 	maxSpeed 	13.999951163214
scalar RSUExampleScenario.node[74].veinsmobility 	totalDistance 	691.40638933681
scalar RSUExampleScenario.node[74].veinsmobility 	totalCO2Emission 	288.36960062874
scalar RSUExampleScenario.node[75].veinsmobility 	startTime 	180.8
scalar RSUExampleScenario.node[75].veinsmobility 	totalTime 	169.2
scalar RSUExampleScenario.node[75].veinsmobility 	stopTime 	350
scalar RSUExampleScenario.node[75].veinsmobility 	minSpeed 	0
scalar RSUExampleScenario.node[75].veinsmobility 	maxSpeed 	13.999726493808
scalar RSUExampleScenario.node[75].veinsmobility 	totalDistance 	657.41778826682
scalar RSUExampleScenario.node[75].veinsmobility 	totalCO2Emission 	282.26586022498
scalar RSUExampleScenario.node[76].veinsmobility 	startTime 	183.2
scalar RSUExampleScenario.node[76].veinsmobility 	totalTime 	166.8
scalar RSUExampleScenario.node[76].veinsmobility 	stopTime 	350
scalar RSUExampleScenario.node[76].veinsmobility 	minSpeed 	0
scalar RSUExampleScenario.node[76].veinsmobility 	maxSpeed 	13.999265071321
scalar RSUExampleScenario.node[76].veinsmobility 	totalDistance 	624.16469953337
scalar RSUExampleScenario.node[76].veinsmobility 	totalCO2Emission 	276.64230294186
scalar RSUExampleScenario.node[77].veinsmobility 	startTime 	185.6
scalar RSUExampleScenario.node[77].veinsmobility 	totalTime 	164.4
scalar RSUExampleScenario.node[77].veinsmobility 	stopTime 	350
scalar RSUExampleScenario.node[77].veinsmobility 	minSpeed 	0
scalar RSUExampleScenario.node[77].veinsmobility 	maxSpeed 	13.999050762253
scalar RSUExampleScenario.node[77].veinsmobility 	totalDistance 	590.55240473088
scalar RSUExampleScenario.node[77].veinsmobility 	totalCO2Emission 	269.65296953712
scalar RSUExampleScenario.node[78].veinsmobility 	startTime 	188
scalar RSUExampleScenario.node[78].veinsmobility 	totalTime 	162
scalar RSUExampleScenario.node[78].veinsmobility 	stopTime 	350
scalar RSUExampleScenario.node[78].veinsmobility 	minSpeed 	0
scalar RSUExampleScenario.node[78].veinsmobility 	maxSpeed 	13.999960356932
scalar RSUExampleScenario.node[78].veinsmobility 	totalDistance 	557.83639588183
scalar RSUExampleScenario.node[78].veinsmobility 	totalCO2Emission 	265.77534092906
scalar RSUExampleScenario.node[79].veinsmobility 	startTime 	190.4
scalar RSUExampleScenario.node[79].veinsmobility 	totalTime 	159.6
scalar RSUExampleScenario.node[79].veinsmobility 	stopTime 	350
scalar RSUExampleScenario.node[79].veinsmobility 	minSpeed 	0
scalar RSUExampleScenario.node[79].veinsmobility 	maxSpeed 	13.999678766585
scalar RSUExampleScenario.node[79].veinsmobility 	totalDistance 	524.04765867107
scalar RSUExampleScenario.node[79].veinsmobility 	totalCO2Emission 	259.47760083908
scalar RSUExampleScenario.node[8].veinsmobility 	startTime 	19.3
scalar RSUExampleScenario.node[8].veinsmobility 	totalTime 	330.7
scalar RSUExampleScenario.node[8].veinsmobility 	stopTime 	350
scalar RSUExampleScenario.node[8].veinsmobility 	minSpeed 	0
scalar RSUExampleScenario.node[8].veinsmobility 	maxSpeed 	13.99983082785
scalar RSUExampleScenario.node[8].veinsmobility 	totalDistance 	2863.1486883087
scalar RSUExampleScenario.node[8].veinsmobility 	totalCO2Emission 	670.44465079485
scalar RSUExampleScenario.node[80].veinsmobility 	startTime 	192.9
scalar RSUExampleScenario.node[80].veinsmobility 	totalTime 	157.1
scalar RSUExampleScenario.node[80].veinsmobility 	stopTime 	350
scalar RSUExampleScenario.node[80].veinsmobility 	minSpeed 	0
scalar RSUExampleScenario.node[80].veinsmobility 	maxSpeed 	13.99828590435
scalar RSUExampleScenario.node[80].veinsmobility 	totalDistance 	490.22346996552
scalar RSUExampleScenario.node[80].veinsmobility 	totalCO2Emission 	253.50272962922
scalar RSUExampleScenario.node[81].veinsmobility 	startTime 	195.3
scalar RSUExampleScenario.node[81].veinsmobility 	totalTime 	154.7
scalar RSUExampleScenario.node[81].veinsmobility 	stopTime 	350
scalar RSUExampleScenario.node[81].veinsmobility 	minSpeed 	0
scalar RSUExampleScenario.node[81].veinsmobility 	maxSpeed 	13.999920173399
scalar RSUExampleScenario.node[81].veinsmobility 	totalDistance 	457.50737216568
scalar RSUExampleScenario.node[81].veinsmobility 	totalCO2Emission 	247.81764514071
scalar RSUExampleScenario.node[82].veinsmobility 	startTime 	197.7
scalar RSUExampleScenario.node[82].veinsmobility 	totalTime 	152.3
scalar RSUExampleScenario.node[82].veinsmobility 	stopTime 	350
scalar RSUExampleScenario.node[82].veinsmobility 	minSpeed 	0
scalar RSUExampleScenario.node[82].veinsmobility 	maxSpeed 	13.999881079423
scalar RSUExampleScenario.node[82].veinsmobility 	totalDistance 	421.81345974893
scalar RSUExampleScenario.node[82].veinsmobility 	totalCO2Emission 	241.95641717951
scalar RSUExampleScenario.node[83].veinsmobility 	startTime 	200.1
scalar RSUExampleScenario.node[83].veinsmobility 	totalTime 	149.9
scalar RSUExampleScenario.node[83].veinsmobility 	stopTime 	350
scalar RSUExampleScenario.node[83].veinsmobility 	minSpeed 	0
scalar RSUExampleScenario.node[83].veinsmobility 	maxSpeed 	13.998172449474
scalar RSUExampleScenario.node[83].veinsmobility 	totalDistance 	388.81550449716
scalar RSUExampleScenario.node[83].veinsmobility 	totalCO2Emission 	236.94047122703
scalar RSUExampleScenario.node[84].veinsmobility 	startTime 	202.5
scalar RSUExampleScenario.node[84].veinsmobility 	totalTime 	147.5
scalar RSUExampleScenario.node[84].veinsmobility 	stopTime 	350
scalar RSUExampleScenario.node[84].veinsmobility 	minSpeed 	0
scalar RSUExampleScenario.node[84].veinsmobility 	maxSpeed 	13.999115919475
scalar RSUExampleScenario.node[84].veinsmobility 	totalDistance 	354.96284237469
scalar RSUExampleScenario.node[84].veinsmobility 	totalCO2Emission 	230.7060937537
scalar RSUExampleScenario.node[85].veinsmobility 	startTime 	204.9
scalar RSUExampleScenario.node[85].veinsmobility 	totalTime 	145.1
scalar RSUExampleScenario.node[85].veinsmobility 	stopTime 	350
scalar RSUExampleScenario.node[85].veinsmobility 	minSpeed 	0
scalar RSUExampleScenario.node[85].veinsmobility 	maxSpeed 	13.997681327376
scalar RSUExampleScenario.node[85].veinsmobility 	totalDistance 	322.1266303455
scalar RSUExampleScenario.node[85].veinsmobility 	totalCO2Emission 	225.99640069
scalar RSUExampleScenario.node[86].veinsmobility 	startTime 	207.3
scalar RSUExampleScenario.node[86].veinsmobility 	totalTime 	142.7
scalar RSUExampleScenario.node[86].veinsmobility 	stopTime 	350
scalar RSUExampleScenario.node[86].veinsmobility 	minSpeed 	0
scalar RSUExampleScenario.node[86].veinsmobility 	maxSpeed 	13.832190819304
scalar RSUExampleScenario.node[86].veinsmobility 	totalDistance 	287.4934943316
scalar RSUExampleScenario.node[86].veinsmobility 	totalCO2Emission 	218.36964889585
scalar RSUExampleScenario.node[87].veinsmobility 	startTime 	209.7
scalar RSUExampleScenario.node[87].veinsmobility 	totalTime 	140.3
scalar RSUExampleScenario.node[87].veinsmobility 	stopTime 	350
scalar RSUExampleScenario.node[87].veinsmobility 	minSpeed 	0
scalar RSUExampleScenario.node[87].veinsmobility 	maxSpeed 	13.780275098705
scalar RSUExampleScenario.node[87].veinsmobility 	totalDistance 	246.92369517229
scalar RSUExampleScenario.node[87].veinsmobility 	totalCO2Emission 	200.232406857
scalar RSUExampleScenario.node[88].veinsmobility 	startTime 	212.1
scalar RSUExampleScenario.node[88].veinsmobility 	totalTime 	137.9
scalar RSUExampleScenario.node[88].veinsmobility 	stopTime 	350
scalar RSUExampleScenario.node[88].veinsmobility 	minSpeed 	0
scalar RSUExampleScenario.node[88].veinsmobility 	maxSpeed 	13.803462431285
scalar RSUExampleScenario.node[88].veinsmobility 	totalDistance 	225.50065042589
scalar RSUExampleScenario.node[88].veinsmobility 	totalCO2Emission 	189.18602269968
scalar RSUExampleScenario.node[89].veinsmobility 	startTime 	214.5
scalar RSUExampleScenario.node[89].veinsmobility 	totalTime 	135.5
scalar RSUExampleScenario.node[89].veinsmobility 	stopTime 	350
scalar RSUExampleScenario.node[89].veinsmobility 	minSpeed 	0
scalar RSUExampleScenario.node[89].veinsmobility 	maxSpeed 	13.686453651215
scalar RSUExampleScenario.node[89].veinsmobility 	totalDistance 	215.06513009809
scalar RSUExampleScenario.node[89].veinsmobility 	totalCO2Emission 	185.88469417711
scalar RSUExampleScenario.node[9].veinsmobility 	startTime 	21.7
scalar RSUExampleScenario.node[9].veinsmobility 	totalTime 	328.3
scalar RSUExampleScenario.node[9].veinsmobility 	stopTime 	350
scalar RSUExampleScenario.node[9].veinsmobility 	minSpeed 	0
scalar RSUExampleScenario.node[9].veinsmobility 	maxSpeed 	13.999848039104
scalar RSUExampleScenario.node[9].veinsmobility 	totalDistance 	2825.1693843737
scalar RSUExampleScenario.node[9].veinsmobility 	totalCO2Emission 	665.03328278844
scalar RSUExampleScenario.node[90].veinsmobility 	startTime 	217
scalar RSUExampleScenario.node[90].veinsmobility 	totalTime 	133
scalar RSUExampleScenario.node[90].veinsmobility 	stopTime 	350
scalar RSUExampleScenario.node[90].veinsmobility 	minSpeed 	0
scalar RSUExampleScenario.node[90].veinsmobility 	maxSpeed 	13.87279814153
scalar RSUExampleScenario.node[90].veinsmobility 	totalDistance 	201.85992580811
scalar RSUExampleScenario.node[90].veinsmobility 	totalCO2Emission 	183.20599837867
scalar RSUExampleScenario.node[91].veinsmobility 	startTime 	219.4
scalar RSUExampleScenario.node[91].veinsmobility 	totalTime 	130.6
scalar RSUExampleScenario.node[91].veinsmobility 	stopTime 	350
scalar RSUExampleScenario.node[91].veinsmobility 	minSpeed 	0
scalar RSUExampleScenario.node[91].veinsmobility 	maxSpeed 	13.814487285228
scalar RSUExampleScenario.node[91].veinsmobility 	totalDistance 	185.12585739799
scalar RSUExampleScenario.node[91].veinsmobility 	totalCO2Emission 	181.3398659634
scalar RSUExampleScenario.node[92].veinsmobility 	startTime 	221.8
scalar RSUExampleScenario.node[92].veinsmobility 	totalTime 	128.2
scalar RSUExampleScenario.node[92].veinsmobility 	stopTime 	350
scalar RSUExampleScenario.node[92].veinsmobility 	minSpeed 	0
scalar RSUExampleScenario.node[92].veinsmobility 	maxSpeed 	13.860164330197
scalar RSUExampleScenario.node[92].veinsmobility 	totalDistance 	148.99639046543
scalar RSUExampleScenario.node[92].veinsmobility 	totalCO2Emission 	166.1934967079
scalar RSUExampleScenario.node[93].veinsmobility 	startTime 	224.2
scalar RSUExampleScenario.node[93].veinsmobility 	totalTime 	125.8
scalar RSUExampleScenario.node[93].veinsmobility 	stopTime 	350
scalar RSUExampleScenario.node[93].veinsmobility 	minSpeed 	0
scalar RSUExampleScenario.node[93].veinsmobility 	maxSpeed 	13.773981664933
scalar RSUExampleScenario.node[93].veinsmobility 	totalDistance 	122.90561883153
scalar RSUExampleScenario.node[93].veinsmobility 	totalCO2Emission 	153.72296787802
scalar RSUExampleScenario.node[94].veinsmobility 	startTime 	226.6
scalar RSUExampleScenario.node[94].veinsmobility 	totalTime 	123.4
scalar RSUExampleScenario.node[94].veinsmobility 	stopTime 	350
scalar RSUExampleScenario.node[94].veinsmobility 	minSpeed 	0
scalar RSUExampleScenario.node[94].veinsmobility 	maxSpeed 	13.722788087754
scalar RSUExampleScenario.node[94].veinsmobility 	totalDistance 	111.77377828559
scalar RSUExampleScenario.node[94].veinsmobility 	totalCO2Emission 	148.27930682062
scalar RSUExampleScenario.node[95].veinsmobility 	startTime 	229
scalar RSUExampleScenario.node[95].veinsmobility 	totalTime 	121
scalar RSUExampleScenario.node[95].veinsmobility 	stopTime 	350
scalar RSUExampleScenario.node[95].veinsmobility 	minSpeed 	0
scalar RSUExampleScenario.node[95].veinsmobility 	maxSpeed 	13.793739041378
scalar RSUExampleScenario.node[95].veinsmobility 	totalDistance 	98.773400656729
scalar RSUExampleScenario.node[95].veinsmobility 	totalCO2Emission 	144.99553687364
scalar RSUExampleScenario.node[96].veinsmobility 	startTime 	231.4
scalar RSUExampleScenario.node[96].veinsmobility 	totalTime 	118.6
scalar RSUExampleScenario.node[96].veinsmobility 	stopTime 	350
scalar RSUExampleScenario.node[96].veinsmobility 	minSpeed 	0
scalar RSUExampleScenario.node[96].veinsmobility 	maxSpeed 	13.808013767194
scalar RSUExampleScenario.node[96].veinsmobility 	totalDistance 	83.031257449974
scalar RSUExampleScenario.node[96].veinsmobility 	totalCO2Emission 	142.3594189166
scalar RSUExampleScenario.node[97].veinsmobility 	startTime 	233.8
scalar RSUExampleScenario.node[97].veinsmobility 	totalTime 	116.2
scalar RSUExampleScenario.node[97].veinsmobility 	stopTime 	350
scalar RSUExampleScenario.node[97].veinsmobility 	minSpeed 	0
scalar RSUExampleScenario.node[97].veinsmobility 	maxSpeed 	12.442000116009
scalar RSUExampleScenario.node[97].veinsmobility 	totalDistance 	56.1762508389
scalar RSUExampleScenario.node[97].veinsmobility 	totalCO2Emission 	134.94698469603
scalar RSUExampleScenario.node[98].veinsmobility 	startTime 	236.2
scalar RSUExampleScenario.node[98].veinsmobility 	totalTime 	113.8
scalar RSUExampleScenario.node[98].veinsmobility 	stopTime 	350
scalar RSUExampleScenario.node[98].veinsmobility 	minSpeed 	0
scalar RSUExampleScenario.node[98].veinsmobility 	maxSpeed 	7.7419696628994
scalar RSUExampleScenario.node[98].veinsmobility 	totalDistance 	22.069493196486
scalar RSUExampleScenario.node[98].veinsmobility 	totalCO2Emission 	119.34623405965
scalar RSUExampleScenario.node[99].veinsmobility 	startTime 	238.6
scalar RSUExampleScenario.node[99].veinsmobility 	totalTime 	111.4
scalar RSUExampleScenario.node[99].veinsmobility 	stopTime 	350
scalar RSUExampleScenario.node[99].veinsmobility 	minSpeed 	0
scalar RSUExampleScenario.node[99].veinsmobility 	maxSpeed 	3.0965601213561
scalar RSUExampleScenario.node[99].veinsmobility 	totalDistance 	3.3266610004495
scalar RSUExampleScenario.node[99].veinsmobility 	totalCO2Emission 	109.813604861
