version 2
run statisticLeach-238-20150323-05:18:38-10676
attr c 30
attr configname statisticLeach
attr datetime 20150323-05:18:38
attr experiment statisticLeach
attr inifile omnetpp.ini
attr iterationvars "$p=1/20, $c=30"
attr iterationvars2 "$p=1/20, $c=30, $repetition=8"
attr measurement "$p=1/20, $c=30"
attr network RSUExampleScenario
attr p 1/20
attr processid 10676
attr repetition 8
attr replication #8
attr resultdir results
attr runnumber 238
attr seedset 238

scalar . 	c 	30
scalar RSUExampleScenario.node[0].appl 	meanClusterNodes 	0
scalar RSUExampleScenario.node[0].appl 	meanClusterHeadUtility 	0
scalar RSUExampleScenario.node[0].appl 	NumberofCH 	0
scalar RSUExampleScenario.node[0].appl 	NumberofON 	0.054054054054054
scalar RSUExampleScenario.node[0].appl 	NumberofFN 	0.94594594594595
scalar RSUExampleScenario.node[0].veinsmobility 	startTime 	0.1
scalar RSUExampleScenario.node[0].veinsmobility 	totalTime 	449.9
scalar RSUExampleScenario.node[0].veinsmobility 	stopTime 	450
scalar RSUExampleScenario.node[0].veinsmobility 	minSpeed 	0
scalar RSUExampleScenario.node[0].veinsmobility 	maxSpeed 	13.999968083652
scalar RSUExampleScenario.node[0].veinsmobility 	totalDistance 	3133.2372672915
scalar RSUExampleScenario.node[0].veinsmobility 	totalCO2Emission 	837.29921367067
scalar RSUExampleScenario.node[1].appl 	meanClusterNodes 	3
scalar RSUExampleScenario.node[1].appl 	meanClusterHeadUtility 	17.245750469147
scalar RSUExampleScenario.node[1].appl 	NumberofCH 	0.054054054054054
scalar RSUExampleScenario.node[1].appl 	NumberofON 	0.13513513513514
scalar RSUExampleScenario.node[1].appl 	NumberofFN 	0.81081081081081
scalar RSUExampleScenario.node[1].veinsmobility 	startTime 	2.5
scalar RSUExampleScenario.node[1].veinsmobility 	totalTime 	447.5
scalar RSUExampleScenario.node[1].veinsmobility 	stopTime 	450
scalar RSUExampleScenario.node[1].veinsmobility 	minSpeed 	0
scalar RSUExampleScenario.node[1].veinsmobility 	maxSpeed 	13.999974933902
scalar RSUExampleScenario.node[1].veinsmobility 	totalDistance 	3080.8103452442
scalar RSUExampleScenario.node[1].veinsmobility 	totalCO2Emission 	826.54443577657
scalar RSUExampleScenario.node[10].appl 	meanClusterNodes 	0
scalar RSUExampleScenario.node[10].appl 	meanClusterHeadUtility 	0
scalar RSUExampleScenario.node[10].appl 	NumberofCH 	0
scalar RSUExampleScenario.node[10].appl 	NumberofON 	0.32432432432432
scalar RSUExampleScenario.node[10].appl 	NumberofFN 	0.67567567567568
scalar RSUExampleScenario.node[10].veinsmobility 	startTime 	24.2
scalar RSUExampleScenario.node[10].veinsmobility 	totalTime 	425.8
scalar RSUExampleScenario.node[10].veinsmobility 	stopTime 	450
scalar RSUExampleScenario.node[10].veinsmobility 	minSpeed 	0
scalar RSUExampleScenario.node[10].veinsmobility 	maxSpeed 	13.999972910185
scalar RSUExampleScenario.node[10].veinsmobility 	totalDistance 	2792.5140846722
scalar RSUExampleScenario.node[10].veinsmobility 	totalCO2Emission 	759.1350427771
scalar RSUExampleScenario.node[11].appl 	meanClusterNodes 	5
scalar RSUExampleScenario.node[11].appl 	meanClusterHeadUtility 	17.435021986683
scalar RSUExampleScenario.node[11].appl 	NumberofCH 	0.054054054054054
scalar RSUExampleScenario.node[11].appl 	NumberofON 	0.2972972972973
scalar RSUExampleScenario.node[11].appl 	NumberofFN 	0.64864864864865
scalar RSUExampleScenario.node[11].veinsmobility 	startTime 	26.6
scalar RSUExampleScenario.node[11].veinsmobility 	totalTime 	423.4
scalar RSUExampleScenario.node[11].veinsmobility 	stopTime 	450
scalar RSUExampleScenario.node[11].veinsmobility 	minSpeed 	0
scalar RSUExampleScenario.node[11].veinsmobility 	maxSpeed 	13.999969031706
scalar RSUExampleScenario.node[11].veinsmobility 	totalDistance 	2753.2702649111
scalar RSUExampleScenario.node[11].veinsmobility 	totalCO2Emission 	755.0004650551
scalar RSUExampleScenario.node[12].appl 	meanClusterNodes 	5.5
scalar RSUExampleScenario.node[12].appl 	meanClusterHeadUtility 	16.714833911739
scalar RSUExampleScenario.node[12].appl 	NumberofCH 	0.054054054054054
scalar RSUExampleScenario.node[12].appl 	NumberofON 	0.48648648648649
scalar RSUExampleScenario.node[12].appl 	NumberofFN 	0.45945945945946
scalar RSUExampleScenario.node[12].veinsmobility 	startTime 	29
scalar RSUExampleScenario.node[12].veinsmobility 	totalTime 	421
scalar RSUExampleScenario.node[12].veinsmobility 	stopTime 	450
scalar RSUExampleScenario.node[12].veinsmobility 	minSpeed 	0
scalar RSUExampleScenario.node[12].veinsmobility 	maxSpeed 	13.999969708407
scalar RSUExampleScenario.node[12].veinsmobility 	totalDistance 	2723.6596715904
scalar RSUExampleScenario.node[12].veinsmobility 	totalCO2Emission 	745.93286575557
scalar RSUExampleScenario.node[13].appl 	meanClusterNodes 	4.5
scalar RSUExampleScenario.node[13].appl 	meanClusterHeadUtility 	9.3484273681027
scalar RSUExampleScenario.node[13].appl 	NumberofCH 	0.10810810810811
scalar RSUExampleScenario.node[13].appl 	NumberofON 	0.37837837837838
scalar RSUExampleScenario.node[13].appl 	NumberofFN 	0.51351351351351
scalar RSUExampleScenario.node[13].veinsmobility 	startTime 	31.4
scalar RSUExampleScenario.node[13].veinsmobility 	totalTime 	418.6
scalar RSUExampleScenario.node[13].veinsmobility 	stopTime 	450
scalar RSUExampleScenario.node[13].veinsmobility 	minSpeed 	0
scalar RSUExampleScenario.node[13].veinsmobility 	maxSpeed 	13.999927945582
scalar RSUExampleScenario.node[13].veinsmobility 	totalDistance 	2681.7243907697
scalar RSUExampleScenario.node[13].veinsmobility 	totalCO2Emission 	741.93530187768
scalar RSUExampleScenario.node[14].appl 	meanClusterNodes 	4
scalar RSUExampleScenario.node[14].appl 	meanClusterHeadUtility 	8.7148889656882
scalar RSUExampleScenario.node[14].appl 	NumberofCH 	0.10810810810811
scalar RSUExampleScenario.node[14].appl 	NumberofON 	0.45945945945946
scalar RSUExampleScenario.node[14].appl 	NumberofFN 	0.43243243243243
scalar RSUExampleScenario.node[14].veinsmobility 	startTime 	33.8
scalar RSUExampleScenario.node[14].veinsmobility 	totalTime 	416.2
scalar RSUExampleScenario.node[14].veinsmobility 	stopTime 	450
scalar RSUExampleScenario.node[14].veinsmobility 	minSpeed 	0
scalar RSUExampleScenario.node[14].veinsmobility 	maxSpeed 	13.999948507228
scalar RSUExampleScenario.node[14].veinsmobility 	totalDistance 	2652.840535491
scalar RSUExampleScenario.node[14].veinsmobility 	totalCO2Emission 	733.5996842811
scalar RSUExampleScenario.node[15].appl 	meanClusterNodes 	6.5
scalar RSUExampleScenario.node[15].appl 	meanClusterHeadUtility 	16.62321918177
scalar RSUExampleScenario.node[15].appl 	NumberofCH 	0.054054054054054
scalar RSUExampleScenario.node[15].appl 	NumberofON 	0.27027027027027
scalar RSUExampleScenario.node[15].appl 	NumberofFN 	0.67567567567568
scalar RSUExampleScenario.node[15].veinsmobility 	startTime 	36.2
scalar RSUExampleScenario.node[15].veinsmobility 	totalTime 	413.8
scalar RSUExampleScenario.node[15].veinsmobility 	stopTime 	450
scalar RSUExampleScenario.node[15].veinsmobility 	minSpeed 	0
scalar RSUExampleScenario.node[15].veinsmobility 	maxSpeed 	13.999827133128
scalar RSUExampleScenario.node[15].veinsmobility 	totalDistance 	2614.0512165056
scalar RSUExampleScenario.node[15].veinsmobility 	totalCO2Emission 	730.00047382455
scalar RSUExampleScenario.node[16].appl 	meanClusterNodes 	0
scalar RSUExampleScenario.node[16].appl 	meanClusterHeadUtility 	0
scalar RSUExampleScenario.node[16].appl 	NumberofCH 	0
scalar RSUExampleScenario.node[16].appl 	NumberofON 	0.24324324324324
scalar RSUExampleScenario.node[16].appl 	NumberofFN 	0.75675675675676
scalar RSUExampleScenario.node[16].veinsmobility 	startTime 	38.6
scalar RSUExampleScenario.node[16].veinsmobility 	totalTime 	411.4
scalar RSUExampleScenario.node[16].veinsmobility 	stopTime 	450
scalar RSUExampleScenario.node[16].veinsmobility 	minSpeed 	0
scalar RSUExampleScenario.node[16].veinsmobility 	maxSpeed 	13.99998585562
scalar RSUExampleScenario.node[16].veinsmobility 	totalDistance 	2584.0605494781
scalar RSUExampleScenario.node[16].veinsmobility 	totalCO2Emission 	722.7049189031
scalar RSUExampleScenario.node[17].appl 	meanClusterNodes 	0
scalar RSUExampleScenario.node[17].appl 	meanClusterHeadUtility 	0
scalar RSUExampleScenario.node[17].appl 	NumberofCH 	0
scalar RSUExampleScenario.node[17].appl 	NumberofON 	0.21621621621622
scalar RSUExampleScenario.node[17].appl 	NumberofFN 	0.78378378378378
scalar RSUExampleScenario.node[17].veinsmobility 	startTime 	41
scalar RSUExampleScenario.node[17].veinsmobility 	totalTime 	409
scalar RSUExampleScenario.node[17].veinsmobility 	stopTime 	450
scalar RSUExampleScenario.node[17].veinsmobility 	minSpeed 	0
scalar RSUExampleScenario.node[17].veinsmobility 	maxSpeed 	13.999719212481
scalar RSUExampleScenario.node[17].veinsmobility 	totalDistance 	2540.2000153922
scalar RSUExampleScenario.node[17].veinsmobility 	totalCO2Emission 	716.89633515884
scalar RSUExampleScenario.node[18].appl 	meanClusterNodes 	0
scalar RSUExampleScenario.node[18].appl 	meanClusterHeadUtility 	0
scalar RSUExampleScenario.node[18].appl 	NumberofCH 	0
scalar RSUExampleScenario.node[18].appl 	NumberofON 	0.27027027027027
scalar RSUExampleScenario.node[18].appl 	NumberofFN 	0.72972972972973
scalar RSUExampleScenario.node[18].veinsmobility 	startTime 	43.4
scalar RSUExampleScenario.node[18].veinsmobility 	totalTime 	406.6
scalar RSUExampleScenario.node[18].veinsmobility 	stopTime 	450
scalar RSUExampleScenario.node[18].veinsmobility 	minSpeed 	0
scalar RSUExampleScenario.node[18].veinsmobility 	maxSpeed 	13.999993493503
scalar RSUExampleScenario.node[18].veinsmobility 	totalDistance 	2508.4851385121
scalar RSUExampleScenario.node[18].veinsmobility 	totalCO2Emission 	711.11544297121
scalar RSUExampleScenario.node[19].appl 	meanClusterNodes 	0
scalar RSUExampleScenario.node[19].appl 	meanClusterHeadUtility 	0
scalar RSUExampleScenario.node[19].appl 	NumberofCH 	0
scalar RSUExampleScenario.node[19].appl 	NumberofON 	0.21621621621622
scalar RSUExampleScenario.node[19].appl 	NumberofFN 	0.78378378378378
scalar RSUExampleScenario.node[19].veinsmobility 	startTime 	45.8
scalar RSUExampleScenario.node[19].veinsmobility 	totalTime 	404.2
scalar RSUExampleScenario.node[19].veinsmobility 	stopTime 	450
scalar RSUExampleScenario.node[19].veinsmobility 	minSpeed 	0
scalar RSUExampleScenario.node[19].veinsmobility 	maxSpeed 	13.999791977077
scalar RSUExampleScenario.node[19].veinsmobility 	totalDistance 	2471.2748287144
scalar RSUExampleScenario.node[19].veinsmobility 	totalCO2Emission 	707.16081296302
scalar RSUExampleScenario.node[2].appl 	meanClusterNodes 	3
scalar RSUExampleScenario.node[2].appl 	meanClusterHeadUtility 	18.773364522397
scalar RSUExampleScenario.node[2].appl 	NumberofCH 	0.054054054054054
scalar RSUExampleScenario.node[2].appl 	NumberofON 	0.27027027027027
scalar RSUExampleScenario.node[2].appl 	NumberofFN 	0.67567567567568
scalar RSUExampleScenario.node[2].veinsmobility 	startTime 	4.9
scalar RSUExampleScenario.node[2].veinsmobility 	totalTime 	445.1
scalar RSUExampleScenario.node[2].veinsmobility 	stopTime 	450
scalar RSUExampleScenario.node[2].veinsmobility 	minSpeed 	0
scalar RSUExampleScenario.node[2].veinsmobility 	maxSpeed 	13.999791780759
scalar RSUExampleScenario.node[2].veinsmobility 	totalDistance 	3041.0321688526
scalar RSUExampleScenario.node[2].veinsmobility 	totalCO2Emission 	820.64617113741
scalar RSUExampleScenario.node[20].appl 	meanClusterNodes 	4.25
scalar RSUExampleScenario.node[20].appl 	meanClusterHeadUtility 	8.6559945896989
scalar RSUExampleScenario.node[20].appl 	NumberofCH 	0.10810810810811
scalar RSUExampleScenario.node[20].appl 	NumberofON 	0.35135135135135
scalar RSUExampleScenario.node[20].appl 	NumberofFN 	0.54054054054054
scalar RSUExampleScenario.node[20].veinsmobility 	startTime 	48.3
scalar RSUExampleScenario.node[20].veinsmobility 	totalTime 	401.7
scalar RSUExampleScenario.node[20].veinsmobility 	stopTime 	450
scalar RSUExampleScenario.node[20].veinsmobility 	minSpeed 	0
scalar RSUExampleScenario.node[20].veinsmobility 	maxSpeed 	13.999982411668
scalar RSUExampleScenario.node[20].veinsmobility 	totalDistance 	2442.2331566261
scalar RSUExampleScenario.node[20].veinsmobility 	totalCO2Emission 	703.55945276708
scalar RSUExampleScenario.node[21].appl 	meanClusterNodes 	10
scalar RSUExampleScenario.node[21].appl 	meanClusterHeadUtility 	17.638044891107
scalar RSUExampleScenario.node[21].appl 	NumberofCH 	0.054054054054054
scalar RSUExampleScenario.node[21].appl 	NumberofON 	0.21621621621622
scalar RSUExampleScenario.node[21].appl 	NumberofFN 	0.72972972972973
scalar RSUExampleScenario.node[21].veinsmobility 	startTime 	50.7
scalar RSUExampleScenario.node[21].veinsmobility 	totalTime 	399.3
scalar RSUExampleScenario.node[21].veinsmobility 	stopTime 	450
scalar RSUExampleScenario.node[21].veinsmobility 	minSpeed 	0
scalar RSUExampleScenario.node[21].veinsmobility 	maxSpeed 	13.99993211085
scalar RSUExampleScenario.node[21].veinsmobility 	totalDistance 	2404.2448425375
scalar RSUExampleScenario.node[21].veinsmobility 	totalCO2Emission 	695.08264129284
scalar RSUExampleScenario.node[22].appl 	meanClusterNodes 	1.5
scalar RSUExampleScenario.node[22].appl 	meanClusterHeadUtility 	8.2895566723453
scalar RSUExampleScenario.node[22].appl 	NumberofCH 	0.10810810810811
scalar RSUExampleScenario.node[22].appl 	NumberofON 	0.43243243243243
scalar RSUExampleScenario.node[22].appl 	NumberofFN 	0.45945945945946
scalar RSUExampleScenario.node[22].veinsmobility 	startTime 	53.1
scalar RSUExampleScenario.node[22].veinsmobility 	totalTime 	396.9
scalar RSUExampleScenario.node[22].veinsmobility 	stopTime 	450
scalar RSUExampleScenario.node[22].veinsmobility 	minSpeed 	0
scalar RSUExampleScenario.node[22].veinsmobility 	maxSpeed 	13.999882695975
scalar RSUExampleScenario.node[22].veinsmobility 	totalDistance 	2374.4064092927
scalar RSUExampleScenario.node[22].veinsmobility 	totalCO2Emission 	692.08498663719
scalar RSUExampleScenario.node[23].appl 	meanClusterNodes 	0
scalar RSUExampleScenario.node[23].appl 	meanClusterHeadUtility 	0
scalar RSUExampleScenario.node[23].appl 	NumberofCH 	0
scalar RSUExampleScenario.node[23].appl 	NumberofON 	0.56756756756757
scalar RSUExampleScenario.node[23].appl 	NumberofFN 	0.43243243243243
scalar RSUExampleScenario.node[23].veinsmobility 	startTime 	55.5
scalar RSUExampleScenario.node[23].veinsmobility 	totalTime 	394.5
scalar RSUExampleScenario.node[23].veinsmobility 	stopTime 	450
scalar RSUExampleScenario.node[23].veinsmobility 	minSpeed 	0
scalar RSUExampleScenario.node[23].veinsmobility 	maxSpeed 	13.999878219431
scalar RSUExampleScenario.node[23].veinsmobility 	totalDistance 	2336.5974716975
scalar RSUExampleScenario.node[23].veinsmobility 	totalCO2Emission 	684.88648995704
scalar RSUExampleScenario.node[24].appl 	meanClusterNodes 	5.5
scalar RSUExampleScenario.node[24].appl 	meanClusterHeadUtility 	19.208161398287
scalar RSUExampleScenario.node[24].appl 	NumberofCH 	0.054054054054054
scalar RSUExampleScenario.node[24].appl 	NumberofON 	0.40540540540541
scalar RSUExampleScenario.node[24].appl 	NumberofFN 	0.54054054054054
scalar RSUExampleScenario.node[24].veinsmobility 	startTime 	57.9
scalar RSUExampleScenario.node[24].veinsmobility 	totalTime 	392.1
scalar RSUExampleScenario.node[24].veinsmobility 	stopTime 	450
scalar RSUExampleScenario.node[24].veinsmobility 	minSpeed 	0
scalar RSUExampleScenario.node[24].veinsmobility 	maxSpeed 	13.999621695727
scalar RSUExampleScenario.node[24].veinsmobility 	totalDistance 	2306.9250035681
scalar RSUExampleScenario.node[24].veinsmobility 	totalCO2Emission 	680.67367011501
scalar RSUExampleScenario.node[25].appl 	meanClusterNodes 	0
scalar RSUExampleScenario.node[25].appl 	meanClusterHeadUtility 	0
scalar RSUExampleScenario.node[25].appl 	NumberofCH 	0.054054054054054
scalar RSUExampleScenario.node[25].appl 	NumberofON 	0.40540540540541
scalar RSUExampleScenario.node[25].appl 	NumberofFN 	0.54054054054054
scalar RSUExampleScenario.node[25].veinsmobility 	startTime 	60.3
scalar RSUExampleScenario.node[25].veinsmobility 	totalTime 	389.7
scalar RSUExampleScenario.node[25].veinsmobility 	stopTime 	450
scalar RSUExampleScenario.node[25].veinsmobility 	minSpeed 	0
scalar RSUExampleScenario.node[25].veinsmobility 	maxSpeed 	13.999612394799
scalar RSUExampleScenario.node[25].veinsmobility 	totalDistance 	2268.5328072513
scalar RSUExampleScenario.node[25].veinsmobility 	totalCO2Emission 	671.41121475169
scalar RSUExampleScenario.node[26].appl 	meanClusterNodes 	9
scalar RSUExampleScenario.node[26].appl 	meanClusterHeadUtility 	16.636619656364
scalar RSUExampleScenario.node[26].appl 	NumberofCH 	0.054054054054054
scalar RSUExampleScenario.node[26].appl 	NumberofON 	0.2972972972973
scalar RSUExampleScenario.node[26].appl 	NumberofFN 	0.64864864864865
scalar RSUExampleScenario.node[26].veinsmobility 	startTime 	62.7
scalar RSUExampleScenario.node[26].veinsmobility 	totalTime 	387.3
scalar RSUExampleScenario.node[26].veinsmobility 	stopTime 	450
scalar RSUExampleScenario.node[26].veinsmobility 	minSpeed 	0
scalar RSUExampleScenario.node[26].veinsmobility 	maxSpeed 	13.999935639431
scalar RSUExampleScenario.node[26].veinsmobility 	totalDistance 	2239.5161355222
scalar RSUExampleScenario.node[26].veinsmobility 	totalCO2Emission 	667.52745285323
scalar RSUExampleScenario.node[27].appl 	meanClusterNodes 	10
scalar RSUExampleScenario.node[27].appl 	meanClusterHeadUtility 	17.229260909963
scalar RSUExampleScenario.node[27].appl 	NumberofCH 	0.054054054054054
scalar RSUExampleScenario.node[27].appl 	NumberofON 	0.27027027027027
scalar RSUExampleScenario.node[27].appl 	NumberofFN 	0.67567567567568
scalar RSUExampleScenario.node[27].veinsmobility 	startTime 	65.1
scalar RSUExampleScenario.node[27].veinsmobility 	totalTime 	384.9
scalar RSUExampleScenario.node[27].veinsmobility 	stopTime 	450
scalar RSUExampleScenario.node[27].veinsmobility 	minSpeed 	0
scalar RSUExampleScenario.node[27].veinsmobility 	maxSpeed 	13.999876044132
scalar RSUExampleScenario.node[27].veinsmobility 	totalDistance 	2203.2776153166
scalar RSUExampleScenario.node[27].veinsmobility 	totalCO2Emission 	661.51562509584
scalar RSUExampleScenario.node[28].appl 	meanClusterNodes 	0
scalar RSUExampleScenario.node[28].appl 	meanClusterHeadUtility 	0
scalar RSUExampleScenario.node[28].appl 	NumberofCH 	0
scalar RSUExampleScenario.node[28].appl 	NumberofON 	0.2972972972973
scalar RSUExampleScenario.node[28].appl 	NumberofFN 	0.7027027027027
scalar RSUExampleScenario.node[28].veinsmobility 	startTime 	67.5
scalar RSUExampleScenario.node[28].veinsmobility 	totalTime 	382.5
scalar RSUExampleScenario.node[28].veinsmobility 	stopTime 	450
scalar RSUExampleScenario.node[28].veinsmobility 	minSpeed 	0
scalar RSUExampleScenario.node[28].veinsmobility 	maxSpeed 	13.999994843728
scalar RSUExampleScenario.node[28].veinsmobility 	totalDistance 	2170.6506020292
scalar RSUExampleScenario.node[28].veinsmobility 	totalCO2Emission 	653.90143970818
scalar RSUExampleScenario.node[29].appl 	meanClusterNodes 	0
scalar RSUExampleScenario.node[29].appl 	meanClusterHeadUtility 	0
scalar RSUExampleScenario.node[29].appl 	NumberofCH 	0
scalar RSUExampleScenario.node[29].appl 	NumberofON 	0.43243243243243
scalar RSUExampleScenario.node[29].appl 	NumberofFN 	0.56756756756757
scalar RSUExampleScenario.node[29].veinsmobility 	startTime 	69.9
scalar RSUExampleScenario.node[29].veinsmobility 	totalTime 	380.1
scalar RSUExampleScenario.node[29].veinsmobility 	stopTime 	450
scalar RSUExampleScenario.node[29].veinsmobility 	minSpeed 	0
scalar RSUExampleScenario.node[29].veinsmobility 	maxSpeed 	13.99991328828
scalar RSUExampleScenario.node[29].veinsmobility 	totalDistance 	2134.5763495084
scalar RSUExampleScenario.node[29].veinsmobility 	totalCO2Emission 	650.64945195093
scalar RSUExampleScenario.node[3].appl 	meanClusterNodes 	0
scalar RSUExampleScenario.node[3].appl 	meanClusterHeadUtility 	0
scalar RSUExampleScenario.node[3].appl 	NumberofCH 	0
scalar RSUExampleScenario.node[3].appl 	NumberofON 	0.24324324324324
scalar RSUExampleScenario.node[3].appl 	NumberofFN 	0.75675675675676
scalar RSUExampleScenario.node[3].veinsmobility 	startTime 	7.3
scalar RSUExampleScenario.node[3].veinsmobility 	totalTime 	442.7
scalar RSUExampleScenario.node[3].veinsmobility 	stopTime 	450
scalar RSUExampleScenario.node[3].veinsmobility 	minSpeed 	0
scalar RSUExampleScenario.node[3].veinsmobility 	maxSpeed 	13.999926476798
scalar RSUExampleScenario.node[3].veinsmobility 	totalDistance 	2994.512474452
scalar RSUExampleScenario.node[3].veinsmobility 	totalCO2Emission 	813.46375722936
scalar RSUExampleScenario.node[30].appl 	meanClusterNodes 	2.75
scalar RSUExampleScenario.node[30].appl 	meanClusterHeadUtility 	8.8924768856541
scalar RSUExampleScenario.node[30].appl 	NumberofCH 	0.10810810810811
scalar RSUExampleScenario.node[30].appl 	NumberofON 	0.40540540540541
scalar RSUExampleScenario.node[30].appl 	NumberofFN 	0.48648648648649
scalar RSUExampleScenario.node[30].veinsmobility 	startTime 	72.4
scalar RSUExampleScenario.node[30].veinsmobility 	totalTime 	377.6
scalar RSUExampleScenario.node[30].veinsmobility 	stopTime 	450
scalar RSUExampleScenario.node[30].veinsmobility 	minSpeed 	0
scalar RSUExampleScenario.node[30].veinsmobility 	maxSpeed 	13.999948081842
scalar RSUExampleScenario.node[30].veinsmobility 	totalDistance 	2101.6168778551
scalar RSUExampleScenario.node[30].veinsmobility 	totalCO2Emission 	641.2799422048
scalar RSUExampleScenario.node[31].appl 	meanClusterNodes 	0
scalar RSUExampleScenario.node[31].appl 	meanClusterHeadUtility 	0
scalar RSUExampleScenario.node[31].appl 	NumberofCH 	0
scalar RSUExampleScenario.node[31].appl 	NumberofON 	0.45945945945946
scalar RSUExampleScenario.node[31].appl 	NumberofFN 	0.54054054054054
scalar RSUExampleScenario.node[31].veinsmobility 	startTime 	74.8
scalar RSUExampleScenario.node[31].veinsmobility 	totalTime 	375.2
scalar RSUExampleScenario.node[31].veinsmobility 	stopTime 	450
scalar RSUExampleScenario.node[31].veinsmobility 	minSpeed 	0
scalar RSUExampleScenario.node[31].veinsmobility 	maxSpeed 	13.999931728505
scalar RSUExampleScenario.node[31].veinsmobility 	totalDistance 	2066.85125176
scalar RSUExampleScenario.node[31].veinsmobility 	totalCO2Emission 	638.63549636295
scalar RSUExampleScenario.node[32].appl 	meanClusterNodes 	5.5
scalar RSUExampleScenario.node[32].appl 	meanClusterHeadUtility 	20.577938701239
scalar RSUExampleScenario.node[32].appl 	NumberofCH 	0.054054054054054
scalar RSUExampleScenario.node[32].appl 	NumberofON 	0.45945945945946
scalar RSUExampleScenario.node[32].appl 	NumberofFN 	0.48648648648649
scalar RSUExampleScenario.node[32].veinsmobility 	startTime 	77.2
scalar RSUExampleScenario.node[32].veinsmobility 	totalTime 	372.8
scalar RSUExampleScenario.node[32].veinsmobility 	stopTime 	450
scalar RSUExampleScenario.node[32].veinsmobility 	minSpeed 	0
scalar RSUExampleScenario.node[32].veinsmobility 	maxSpeed 	13.999970270575
scalar RSUExampleScenario.node[32].veinsmobility 	totalDistance 	2032.8386987068
scalar RSUExampleScenario.node[32].veinsmobility 	totalCO2Emission 	631.72639404427
scalar RSUExampleScenario.node[33].appl 	meanClusterNodes 	8
scalar RSUExampleScenario.node[33].appl 	meanClusterHeadUtility 	9.5283261733126
scalar RSUExampleScenario.node[33].appl 	NumberofCH 	0.10810810810811
scalar RSUExampleScenario.node[33].appl 	NumberofON 	0.35135135135135
scalar RSUExampleScenario.node[33].appl 	NumberofFN 	0.54054054054054
scalar RSUExampleScenario.node[33].veinsmobility 	startTime 	79.6
scalar RSUExampleScenario.node[33].veinsmobility 	totalTime 	370.4
scalar RSUExampleScenario.node[33].veinsmobility 	stopTime 	450
scalar RSUExampleScenario.node[33].veinsmobility 	minSpeed 	0
scalar RSUExampleScenario.node[33].veinsmobility 	maxSpeed 	13.99996130774
scalar RSUExampleScenario.node[33].veinsmobility 	totalDistance 	1996.9786654078
scalar RSUExampleScenario.node[33].veinsmobility 	totalCO2Emission 	627.4694246961
scalar RSUExampleScenario.node[34].appl 	meanClusterNodes 	0
scalar RSUExampleScenario.node[34].appl 	meanClusterHeadUtility 	0
scalar RSUExampleScenario.node[34].appl 	NumberofCH 	0
scalar RSUExampleScenario.node[34].appl 	NumberofON 	0.45945945945946
scalar RSUExampleScenario.node[34].appl 	NumberofFN 	0.54054054054054
scalar RSUExampleScenario.node[34].veinsmobility 	startTime 	82
scalar RSUExampleScenario.node[34].veinsmobility 	totalTime 	368
scalar RSUExampleScenario.node[34].veinsmobility 	stopTime 	450
scalar RSUExampleScenario.node[34].veinsmobility 	minSpeed 	0
scalar RSUExampleScenario.node[34].veinsmobility 	maxSpeed 	13.9998423733
scalar RSUExampleScenario.node[34].veinsmobility 	totalDistance 	1963.7957966813
scalar RSUExampleScenario.node[34].veinsmobility 	totalCO2Emission 	623.38603653044
scalar RSUExampleScenario.node[35].appl 	meanClusterNodes 	5
scalar RSUExampleScenario.node[35].appl 	meanClusterHeadUtility 	15.920922469781
scalar RSUExampleScenario.node[35].appl 	NumberofCH 	0.054054054054054
scalar RSUExampleScenario.node[35].appl 	NumberofON 	0.2972972972973
scalar RSUExampleScenario.node[35].appl 	NumberofFN 	0.64864864864865
scalar RSUExampleScenario.node[35].veinsmobility 	startTime 	84.4
scalar RSUExampleScenario.node[35].veinsmobility 	totalTime 	365.6
scalar RSUExampleScenario.node[35].veinsmobility 	stopTime 	450
scalar RSUExampleScenario.node[35].veinsmobility 	minSpeed 	0
scalar RSUExampleScenario.node[35].veinsmobility 	maxSpeed 	13.9999008844
scalar RSUExampleScenario.node[35].veinsmobility 	totalDistance 	1931.0219143426
scalar RSUExampleScenario.node[35].veinsmobility 	totalCO2Emission 	612.48101520054
scalar RSUExampleScenario.node[36].appl 	meanClusterNodes 	13.5
scalar RSUExampleScenario.node[36].appl 	meanClusterHeadUtility 	17.41022831277
scalar RSUExampleScenario.node[36].appl 	NumberofCH 	0.054054054054054
scalar RSUExampleScenario.node[36].appl 	NumberofON 	0.32432432432432
scalar RSUExampleScenario.node[36].appl 	NumberofFN 	0.62162162162162
scalar RSUExampleScenario.node[36].veinsmobility 	startTime 	86.8
scalar RSUExampleScenario.node[36].veinsmobility 	totalTime 	363.2
scalar RSUExampleScenario.node[36].veinsmobility 	stopTime 	450
scalar RSUExampleScenario.node[36].veinsmobility 	minSpeed 	0
scalar RSUExampleScenario.node[36].veinsmobility 	maxSpeed 	13.999903708675
scalar RSUExampleScenario.node[36].veinsmobility 	totalDistance 	1898.4853577833
scalar RSUExampleScenario.node[36].veinsmobility 	totalCO2Emission 	606.11954776263
scalar RSUExampleScenario.node[37].appl 	meanClusterNodes 	7
scalar RSUExampleScenario.node[37].appl 	meanClusterHeadUtility 	17.462754254606
scalar RSUExampleScenario.node[37].appl 	NumberofCH 	0.054054054054054
scalar RSUExampleScenario.node[37].appl 	NumberofON 	0.35135135135135
scalar RSUExampleScenario.node[37].appl 	NumberofFN 	0.59459459459459
scalar RSUExampleScenario.node[37].veinsmobility 	startTime 	89.2
scalar RSUExampleScenario.node[37].veinsmobility 	totalTime 	360.8
scalar RSUExampleScenario.node[37].veinsmobility 	stopTime 	450
scalar RSUExampleScenario.node[37].veinsmobility 	minSpeed 	0
scalar RSUExampleScenario.node[37].veinsmobility 	maxSpeed 	13.999747057906
scalar RSUExampleScenario.node[37].veinsmobility 	totalDistance 	1864.9514265834
scalar RSUExampleScenario.node[37].veinsmobility 	totalCO2Emission 	604.78741843634
scalar RSUExampleScenario.node[38].appl 	meanClusterNodes 	0
scalar RSUExampleScenario.node[38].appl 	meanClusterHeadUtility 	0
scalar RSUExampleScenario.node[38].appl 	NumberofCH 	0
scalar RSUExampleScenario.node[38].appl 	NumberofON 	0.2972972972973
scalar RSUExampleScenario.node[38].appl 	NumberofFN 	0.7027027027027
scalar RSUExampleScenario.node[38].veinsmobility 	startTime 	91.6
scalar RSUExampleScenario.node[38].veinsmobility 	totalTime 	358.4
scalar RSUExampleScenario.node[38].veinsmobility 	stopTime 	450
scalar RSUExampleScenario.node[38].veinsmobility 	minSpeed 	0
scalar RSUExampleScenario.node[38].veinsmobility 	maxSpeed 	13.999928317151
scalar RSUExampleScenario.node[38].veinsmobility 	totalDistance 	1831.0958852945
scalar RSUExampleScenario.node[38].veinsmobility 	totalCO2Emission 	602.0181455575
scalar RSUExampleScenario.node[39].appl 	meanClusterNodes 	0
scalar RSUExampleScenario.node[39].appl 	meanClusterHeadUtility 	0
scalar RSUExampleScenario.node[39].appl 	NumberofCH 	0
scalar RSUExampleScenario.node[39].appl 	NumberofON 	0.40540540540541
scalar RSUExampleScenario.node[39].appl 	NumberofFN 	0.59459459459459
scalar RSUExampleScenario.node[39].veinsmobility 	startTime 	94
scalar RSUExampleScenario.node[39].veinsmobility 	totalTime 	356
scalar RSUExampleScenario.node[39].veinsmobility 	stopTime 	450
scalar RSUExampleScenario.node[39].veinsmobility 	minSpeed 	0
scalar RSUExampleScenario.node[39].veinsmobility 	maxSpeed 	13.999580391764
scalar RSUExampleScenario.node[39].veinsmobility 	totalDistance 	1797.6325571397
scalar RSUExampleScenario.node[39].veinsmobility 	totalCO2Emission 	593.70980141821
scalar RSUExampleScenario.node[4].appl 	meanClusterNodes 	4
scalar RSUExampleScenario.node[4].appl 	meanClusterHeadUtility 	18.456511395662
scalar RSUExampleScenario.node[4].appl 	NumberofCH 	0.054054054054054
scalar RSUExampleScenario.node[4].appl 	NumberofON 	0.18918918918919
scalar RSUExampleScenario.node[4].appl 	NumberofFN 	0.75675675675676
scalar RSUExampleScenario.node[4].veinsmobility 	startTime 	9.7
scalar RSUExampleScenario.node[4].veinsmobility 	totalTime 	440.3
scalar RSUExampleScenario.node[4].veinsmobility 	stopTime 	450
scalar RSUExampleScenario.node[4].veinsmobility 	minSpeed 	0
scalar RSUExampleScenario.node[4].veinsmobility 	maxSpeed 	13.999919539467
scalar RSUExampleScenario.node[4].veinsmobility 	totalDistance 	2949.4961488738
scalar RSUExampleScenario.node[4].veinsmobility 	totalCO2Emission 	804.83795129057
scalar RSUExampleScenario.node[40].appl 	meanClusterNodes 	6
scalar RSUExampleScenario.node[40].appl 	meanClusterHeadUtility 	16.000133167164
scalar RSUExampleScenario.node[40].appl 	NumberofCH 	0.054054054054054
scalar RSUExampleScenario.node[40].appl 	NumberofON 	0.24324324324324
scalar RSUExampleScenario.node[40].appl 	NumberofFN 	0.7027027027027
scalar RSUExampleScenario.node[40].veinsmobility 	startTime 	96.5
scalar RSUExampleScenario.node[40].veinsmobility 	totalTime 	353.5
scalar RSUExampleScenario.node[40].veinsmobility 	stopTime 	450
scalar RSUExampleScenario.node[40].veinsmobility 	minSpeed 	0
scalar RSUExampleScenario.node[40].veinsmobility 	maxSpeed 	13.999962027422
scalar RSUExampleScenario.node[40].veinsmobility 	totalDistance 	1763.9204148325
scalar RSUExampleScenario.node[40].veinsmobility 	totalCO2Emission 	588.46183156711
scalar RSUExampleScenario.node[41].appl 	meanClusterNodes 	0
scalar RSUExampleScenario.node[41].appl 	meanClusterHeadUtility 	0
scalar RSUExampleScenario.node[41].appl 	NumberofCH 	0
scalar RSUExampleScenario.node[41].appl 	NumberofON 	0.54054054054054
scalar RSUExampleScenario.node[41].appl 	NumberofFN 	0.45945945945946
scalar RSUExampleScenario.node[41].veinsmobility 	startTime 	98.9
scalar RSUExampleScenario.node[41].veinsmobility 	totalTime 	351.1
scalar RSUExampleScenario.node[41].veinsmobility 	stopTime 	450
scalar RSUExampleScenario.node[41].veinsmobility 	minSpeed 	0
scalar RSUExampleScenario.node[41].veinsmobility 	maxSpeed 	13.99971506268
scalar RSUExampleScenario.node[41].veinsmobility 	totalDistance 	1728.3321654117
scalar RSUExampleScenario.node[41].veinsmobility 	totalCO2Emission 	581.85141288776
scalar RSUExampleScenario.node[42].appl 	meanClusterNodes 	0
scalar RSUExampleScenario.node[42].appl 	meanClusterHeadUtility 	0
scalar RSUExampleScenario.node[42].appl 	NumberofCH 	0
scalar RSUExampleScenario.node[42].appl 	NumberofON 	0.27027027027027
scalar RSUExampleScenario.node[42].appl 	NumberofFN 	0.72972972972973
scalar RSUExampleScenario.node[42].veinsmobility 	startTime 	101.3
scalar RSUExampleScenario.node[42].veinsmobility 	totalTime 	348.7
scalar RSUExampleScenario.node[42].veinsmobility 	stopTime 	450
scalar RSUExampleScenario.node[42].veinsmobility 	minSpeed 	0
scalar RSUExampleScenario.node[42].veinsmobility 	maxSpeed 	13.999716899008
scalar RSUExampleScenario.node[42].veinsmobility 	totalDistance 	1695.1239377534
scalar RSUExampleScenario.node[42].veinsmobility 	totalCO2Emission 	577.29841145771
scalar RSUExampleScenario.node[43].appl 	meanClusterNodes 	0
scalar RSUExampleScenario.node[43].appl 	meanClusterHeadUtility 	0
scalar RSUExampleScenario.node[43].appl 	NumberofCH 	0
scalar RSUExampleScenario.node[43].appl 	NumberofON 	0.27027027027027
scalar RSUExampleScenario.node[43].appl 	NumberofFN 	0.72972972972973
scalar RSUExampleScenario.node[43].veinsmobility 	startTime 	103.7
scalar RSUExampleScenario.node[43].veinsmobility 	totalTime 	346.3
scalar RSUExampleScenario.node[43].veinsmobility 	stopTime 	450
scalar RSUExampleScenario.node[43].veinsmobility 	minSpeed 	0
scalar RSUExampleScenario.node[43].veinsmobility 	maxSpeed 	13.999878978461
scalar RSUExampleScenario.node[43].veinsmobility 	totalDistance 	1661.9884808237
scalar RSUExampleScenario.node[43].veinsmobility 	totalCO2Emission 	573.66759567786
scalar RSUExampleScenario.node[44].appl 	meanClusterNodes 	3.5
scalar RSUExampleScenario.node[44].appl 	meanClusterHeadUtility 	18.396650277083
scalar RSUExampleScenario.node[44].appl 	NumberofCH 	0.054054054054054
scalar RSUExampleScenario.node[44].appl 	NumberofON 	0.43243243243243
scalar RSUExampleScenario.node[44].appl 	NumberofFN 	0.51351351351351
scalar RSUExampleScenario.node[44].veinsmobility 	startTime 	106.1
scalar RSUExampleScenario.node[44].veinsmobility 	totalTime 	343.9
scalar RSUExampleScenario.node[44].veinsmobility 	stopTime 	450
scalar RSUExampleScenario.node[44].veinsmobility 	minSpeed 	0
scalar RSUExampleScenario.node[44].veinsmobility 	maxSpeed 	13.999846239551
scalar RSUExampleScenario.node[44].veinsmobility 	totalDistance 	1628.6805076655
scalar RSUExampleScenario.node[44].veinsmobility 	totalCO2Emission 	565.53949980405
scalar RSUExampleScenario.node[45].appl 	meanClusterNodes 	0
scalar RSUExampleScenario.node[45].appl 	meanClusterHeadUtility 	0
scalar RSUExampleScenario.node[45].appl 	NumberofCH 	0
scalar RSUExampleScenario.node[45].appl 	NumberofON 	0.35135135135135
scalar RSUExampleScenario.node[45].appl 	NumberofFN 	0.64864864864865
scalar RSUExampleScenario.node[45].veinsmobility 	startTime 	108.5
scalar RSUExampleScenario.node[45].veinsmobility 	totalTime 	341.5
scalar RSUExampleScenario.node[45].veinsmobility 	stopTime 	450
scalar RSUExampleScenario.node[45].veinsmobility 	minSpeed 	0
scalar RSUExampleScenario.node[45].veinsmobility 	maxSpeed 	13.999972055508
scalar RSUExampleScenario.node[45].veinsmobility 	totalDistance 	1595.2138366058
scalar RSUExampleScenario.node[45].veinsmobility 	totalCO2Emission 	559.50328764083
scalar RSUExampleScenario.node[46].appl 	meanClusterNodes 	3
scalar RSUExampleScenario.node[46].appl 	meanClusterHeadUtility 	16.432406183836
scalar RSUExampleScenario.node[46].appl 	NumberofCH 	0.054054054054054
scalar RSUExampleScenario.node[46].appl 	NumberofON 	0.37837837837838
scalar RSUExampleScenario.node[46].appl 	NumberofFN 	0.56756756756757
scalar RSUExampleScenario.node[46].veinsmobility 	startTime 	110.9
scalar RSUExampleScenario.node[46].veinsmobility 	totalTime 	339.1
scalar RSUExampleScenario.node[46].veinsmobility 	stopTime 	450
scalar RSUExampleScenario.node[46].veinsmobility 	minSpeed 	0
scalar RSUExampleScenario.node[46].veinsmobility 	maxSpeed 	13.999700572579
scalar RSUExampleScenario.node[46].veinsmobility 	totalDistance 	1562.7843483765
scalar RSUExampleScenario.node[46].veinsmobility 	totalCO2Emission 	551.87126516229
scalar RSUExampleScenario.node[47].appl 	meanClusterNodes 	4
scalar RSUExampleScenario.node[47].appl 	meanClusterHeadUtility 	17.75286512394
scalar RSUExampleScenario.node[47].appl 	NumberofCH 	0.054054054054054
scalar RSUExampleScenario.node[47].appl 	NumberofON 	0.45945945945946
scalar RSUExampleScenario.node[47].appl 	NumberofFN 	0.48648648648649
scalar RSUExampleScenario.node[47].veinsmobility 	startTime 	113.3
scalar RSUExampleScenario.node[47].veinsmobility 	totalTime 	336.7
scalar RSUExampleScenario.node[47].veinsmobility 	stopTime 	450
scalar RSUExampleScenario.node[47].veinsmobility 	minSpeed 	0
scalar RSUExampleScenario.node[47].veinsmobility 	maxSpeed 	13.999534964485
scalar RSUExampleScenario.node[47].veinsmobility 	totalDistance 	1527.4188218625
scalar RSUExampleScenario.node[47].veinsmobility 	totalCO2Emission 	546.80007196333
scalar RSUExampleScenario.node[48].appl 	meanClusterNodes 	8.5
scalar RSUExampleScenario.node[48].appl 	meanClusterHeadUtility 	19.30730164578
scalar RSUExampleScenario.node[48].appl 	NumberofCH 	0.054054054054054
scalar RSUExampleScenario.node[48].appl 	NumberofON 	0.48648648648649
scalar RSUExampleScenario.node[48].appl 	NumberofFN 	0.45945945945946
scalar RSUExampleScenario.node[48].veinsmobility 	startTime 	115.7
scalar RSUExampleScenario.node[48].veinsmobility 	totalTime 	334.3
scalar RSUExampleScenario.node[48].veinsmobility 	stopTime 	450
scalar RSUExampleScenario.node[48].veinsmobility 	minSpeed 	0
scalar RSUExampleScenario.node[48].veinsmobility 	maxSpeed 	13.999973118338
scalar RSUExampleScenario.node[48].veinsmobility 	totalDistance 	1496.3256015928
scalar RSUExampleScenario.node[48].veinsmobility 	totalCO2Emission 	543.08435245453
scalar RSUExampleScenario.node[49].appl 	meanClusterNodes 	0
scalar RSUExampleScenario.node[49].appl 	meanClusterHeadUtility 	0
scalar RSUExampleScenario.node[49].appl 	NumberofCH 	0
scalar RSUExampleScenario.node[49].appl 	NumberofON 	0.35135135135135
scalar RSUExampleScenario.node[49].appl 	NumberofFN 	0.64864864864865
scalar RSUExampleScenario.node[49].veinsmobility 	startTime 	118.1
scalar RSUExampleScenario.node[49].veinsmobility 	totalTime 	331.9
scalar RSUExampleScenario.node[49].veinsmobility 	stopTime 	450
scalar RSUExampleScenario.node[49].veinsmobility 	minSpeed 	0
scalar RSUExampleScenario.node[49].veinsmobility 	maxSpeed 	13.999976091925
scalar RSUExampleScenario.node[49].veinsmobility 	totalDistance 	1461.7441726594
scalar RSUExampleScenario.node[49].veinsmobility 	totalCO2Emission 	537.52316704679
scalar RSUExampleScenario.node[5].appl 	meanClusterNodes 	0
scalar RSUExampleScenario.node[5].appl 	meanClusterHeadUtility 	0
scalar RSUExampleScenario.node[5].appl 	NumberofCH 	0
scalar RSUExampleScenario.node[5].appl 	NumberofON 	0.18918918918919
scalar RSUExampleScenario.node[5].appl 	NumberofFN 	0.81081081081081
scalar RSUExampleScenario.node[5].veinsmobility 	startTime 	12.1
scalar RSUExampleScenario.node[5].veinsmobility 	totalTime 	437.9
scalar RSUExampleScenario.node[5].veinsmobility 	stopTime 	450
scalar RSUExampleScenario.node[5].veinsmobility 	minSpeed 	0
scalar RSUExampleScenario.node[5].veinsmobility 	maxSpeed 	13.999951160096
scalar RSUExampleScenario.node[5].veinsmobility 	totalDistance 	2913.88114208
scalar RSUExampleScenario.node[5].veinsmobility 	totalCO2Emission 	785.75969074117
scalar RSUExampleScenario.node[50].appl 	meanClusterNodes 	10
scalar RSUExampleScenario.node[50].appl 	meanClusterHeadUtility 	16.476731472416
scalar RSUExampleScenario.node[50].appl 	NumberofCH 	0.054054054054054
scalar RSUExampleScenario.node[50].appl 	NumberofON 	0.24324324324324
scalar RSUExampleScenario.node[50].appl 	NumberofFN 	0.7027027027027
scalar RSUExampleScenario.node[50].veinsmobility 	startTime 	120.6
scalar RSUExampleScenario.node[50].veinsmobility 	totalTime 	329.4
scalar RSUExampleScenario.node[50].veinsmobility 	stopTime 	450
scalar RSUExampleScenario.node[50].veinsmobility 	minSpeed 	0
scalar RSUExampleScenario.node[50].veinsmobility 	maxSpeed 	13.999937402843
scalar RSUExampleScenario.node[50].veinsmobility 	totalDistance 	1427.0189654429
scalar RSUExampleScenario.node[50].veinsmobility 	totalCO2Emission 	530.31876255263
scalar RSUExampleScenario.node[51].appl 	meanClusterNodes 	0
scalar RSUExampleScenario.node[51].appl 	meanClusterHeadUtility 	0
scalar RSUExampleScenario.node[51].appl 	NumberofCH 	0
scalar RSUExampleScenario.node[51].appl 	NumberofON 	0.59459459459459
scalar RSUExampleScenario.node[51].appl 	NumberofFN 	0.40540540540541
scalar RSUExampleScenario.node[51].veinsmobility 	startTime 	123
scalar RSUExampleScenario.node[51].veinsmobility 	totalTime 	327
scalar RSUExampleScenario.node[51].veinsmobility 	stopTime 	450
scalar RSUExampleScenario.node[51].veinsmobility 	minSpeed 	0
scalar RSUExampleScenario.node[51].veinsmobility 	maxSpeed 	13.999933174073
scalar RSUExampleScenario.node[51].veinsmobility 	totalDistance 	1395.5466752768
scalar RSUExampleScenario.node[51].veinsmobility 	totalCO2Emission 	527.13329004301
scalar RSUExampleScenario.node[52].appl 	meanClusterNodes 	9.5
scalar RSUExampleScenario.node[52].appl 	meanClusterHeadUtility 	16.805915213099
scalar RSUExampleScenario.node[52].appl 	NumberofCH 	0.054054054054054
scalar RSUExampleScenario.node[52].appl 	NumberofON 	0.27027027027027
scalar RSUExampleScenario.node[52].appl 	NumberofFN 	0.67567567567568
scalar RSUExampleScenario.node[52].veinsmobility 	startTime 	125.4
scalar RSUExampleScenario.node[52].veinsmobility 	totalTime 	324.6
scalar RSUExampleScenario.node[52].veinsmobility 	stopTime 	450
scalar RSUExampleScenario.node[52].veinsmobility 	minSpeed 	0
scalar RSUExampleScenario.node[52].veinsmobility 	maxSpeed 	13.999971226044
scalar RSUExampleScenario.node[52].veinsmobility 	totalDistance 	1361.0194143796
scalar RSUExampleScenario.node[52].veinsmobility 	totalCO2Emission 	520.22730841712
scalar RSUExampleScenario.node[53].appl 	meanClusterNodes 	5.5
scalar RSUExampleScenario.node[53].appl 	meanClusterHeadUtility 	16.179050230355
scalar RSUExampleScenario.node[53].appl 	NumberofCH 	0.054054054054054
scalar RSUExampleScenario.node[53].appl 	NumberofON 	0.37837837837838
scalar RSUExampleScenario.node[53].appl 	NumberofFN 	0.56756756756757
scalar RSUExampleScenario.node[53].veinsmobility 	startTime 	127.8
scalar RSUExampleScenario.node[53].veinsmobility 	totalTime 	322.2
scalar RSUExampleScenario.node[53].veinsmobility 	stopTime 	450
scalar RSUExampleScenario.node[53].veinsmobility 	minSpeed 	0
scalar RSUExampleScenario.node[53].veinsmobility 	maxSpeed 	13.999945562002
scalar RSUExampleScenario.node[53].veinsmobility 	totalDistance 	1327.8110434477
scalar RSUExampleScenario.node[53].veinsmobility 	totalCO2Emission 	511.6350453185
scalar RSUExampleScenario.node[54].appl 	meanClusterNodes 	13.5
scalar RSUExampleScenario.node[54].appl 	meanClusterHeadUtility 	16.800562554615
scalar RSUExampleScenario.node[54].appl 	NumberofCH 	0.054054054054054
scalar RSUExampleScenario.node[54].appl 	NumberofON 	0.32432432432432
scalar RSUExampleScenario.node[54].appl 	NumberofFN 	0.62162162162162
scalar RSUExampleScenario.node[54].veinsmobility 	startTime 	130.2
scalar RSUExampleScenario.node[54].veinsmobility 	totalTime 	319.8
scalar RSUExampleScenario.node[54].veinsmobility 	stopTime 	450
scalar RSUExampleScenario.node[54].veinsmobility 	minSpeed 	0
scalar RSUExampleScenario.node[54].veinsmobility 	maxSpeed 	13.999994576734
scalar RSUExampleScenario.node[54].veinsmobility 	totalDistance 	1293.7432389593
scalar RSUExampleScenario.node[54].veinsmobility 	totalCO2Emission 	507.58643541534
scalar RSUExampleScenario.node[55].appl 	meanClusterNodes 	9.6666666666667
scalar RSUExampleScenario.node[55].appl 	meanClusterHeadUtility 	11.648138374442
scalar RSUExampleScenario.node[55].appl 	NumberofCH 	0.081081081081081
scalar RSUExampleScenario.node[55].appl 	NumberofON 	0.37837837837838
scalar RSUExampleScenario.node[55].appl 	NumberofFN 	0.54054054054054
scalar RSUExampleScenario.node[55].veinsmobility 	startTime 	132.6
scalar RSUExampleScenario.node[55].veinsmobility 	totalTime 	317.4
scalar RSUExampleScenario.node[55].veinsmobility 	stopTime 	450
scalar RSUExampleScenario.node[55].veinsmobility 	minSpeed 	0
scalar RSUExampleScenario.node[55].veinsmobility 	maxSpeed 	13.999979515749
scalar RSUExampleScenario.node[55].veinsmobility 	totalDistance 	1260.034291455
scalar RSUExampleScenario.node[55].veinsmobility 	totalCO2Emission 	502.05802794091
scalar RSUExampleScenario.node[56].appl 	meanClusterNodes 	0
scalar RSUExampleScenario.node[56].appl 	meanClusterHeadUtility 	0
scalar RSUExampleScenario.node[56].appl 	NumberofCH 	0
scalar RSUExampleScenario.node[56].appl 	NumberofON 	0.27027027027027
scalar RSUExampleScenario.node[56].appl 	NumberofFN 	0.72972972972973
scalar RSUExampleScenario.node[56].veinsmobility 	startTime 	135
scalar RSUExampleScenario.node[56].veinsmobility 	totalTime 	315
scalar RSUExampleScenario.node[56].veinsmobility 	stopTime 	450
scalar RSUExampleScenario.node[56].veinsmobility 	minSpeed 	0
scalar RSUExampleScenario.node[56].veinsmobility 	maxSpeed 	13.999858299193
scalar RSUExampleScenario.node[56].veinsmobility 	totalDistance 	1227.8413408991
scalar RSUExampleScenario.node[56].veinsmobility 	totalCO2Emission 	495.69252584491
scalar RSUExampleScenario.node[57].appl 	meanClusterNodes 	0
scalar RSUExampleScenario.node[57].appl 	meanClusterHeadUtility 	0
scalar RSUExampleScenario.node[57].appl 	NumberofCH 	0
scalar RSUExampleScenario.node[57].appl 	NumberofON 	0.51351351351351
scalar RSUExampleScenario.node[57].appl 	NumberofFN 	0.48648648648649
scalar RSUExampleScenario.node[57].veinsmobility 	startTime 	137.4
scalar RSUExampleScenario.node[57].veinsmobility 	totalTime 	312.6
scalar RSUExampleScenario.node[57].veinsmobility 	stopTime 	450
scalar RSUExampleScenario.node[57].veinsmobility 	minSpeed 	0
scalar RSUExampleScenario.node[57].veinsmobility 	maxSpeed 	13.99996803371
scalar RSUExampleScenario.node[57].veinsmobility 	totalDistance 	1193.3179564196
scalar RSUExampleScenario.node[57].veinsmobility 	totalCO2Emission 	492.41772175364
scalar RSUExampleScenario.node[58].appl 	meanClusterNodes 	10.5
scalar RSUExampleScenario.node[58].appl 	meanClusterHeadUtility 	15.797773730388
scalar RSUExampleScenario.node[58].appl 	NumberofCH 	0.054054054054054
scalar RSUExampleScenario.node[58].appl 	NumberofON 	0.48648648648649
scalar RSUExampleScenario.node[58].appl 	NumberofFN 	0.45945945945946
scalar RSUExampleScenario.node[58].veinsmobility 	startTime 	139.8
scalar RSUExampleScenario.node[58].veinsmobility 	totalTime 	310.2
scalar RSUExampleScenario.node[58].veinsmobility 	stopTime 	450
scalar RSUExampleScenario.node[58].veinsmobility 	minSpeed 	0
scalar RSUExampleScenario.node[58].veinsmobility 	maxSpeed 	13.999834227157
scalar RSUExampleScenario.node[58].veinsmobility 	totalDistance 	1157.8782897916
scalar RSUExampleScenario.node[58].veinsmobility 	totalCO2Emission 	484.28883486379
scalar RSUExampleScenario.node[59].appl 	meanClusterNodes 	6
scalar RSUExampleScenario.node[59].appl 	meanClusterHeadUtility 	17.101608671788
scalar RSUExampleScenario.node[59].appl 	NumberofCH 	0.054054054054054
scalar RSUExampleScenario.node[59].appl 	NumberofON 	0.56756756756757
scalar RSUExampleScenario.node[59].appl 	NumberofFN 	0.37837837837838
scalar RSUExampleScenario.node[59].veinsmobility 	startTime 	142.2
scalar RSUExampleScenario.node[59].veinsmobility 	totalTime 	307.8
scalar RSUExampleScenario.node[59].veinsmobility 	stopTime 	450
scalar RSUExampleScenario.node[59].veinsmobility 	minSpeed 	0
scalar RSUExampleScenario.node[59].veinsmobility 	maxSpeed 	13.999792288232
scalar RSUExampleScenario.node[59].veinsmobility 	totalDistance 	1125.9152754114
scalar RSUExampleScenario.node[59].veinsmobility 	totalCO2Emission 	477.72646196675
scalar RSUExampleScenario.node[6].appl 	meanClusterNodes 	5.5
scalar RSUExampleScenario.node[6].appl 	meanClusterHeadUtility 	17.629669818183
scalar RSUExampleScenario.node[6].appl 	NumberofCH 	0.054054054054054
scalar RSUExampleScenario.node[6].appl 	NumberofON 	0.2972972972973
scalar RSUExampleScenario.node[6].appl 	NumberofFN 	0.64864864864865
scalar RSUExampleScenario.node[6].veinsmobility 	startTime 	14.5
scalar RSUExampleScenario.node[6].veinsmobility 	totalTime 	435.5
scalar RSUExampleScenario.node[6].veinsmobility 	stopTime 	450
scalar RSUExampleScenario.node[6].veinsmobility 	minSpeed 	0
scalar RSUExampleScenario.node[6].veinsmobility 	maxSpeed 	13.999608463927
scalar RSUExampleScenario.node[6].veinsmobility 	totalDistance 	2905.6920941741
scalar RSUExampleScenario.node[6].veinsmobility 	totalCO2Emission 	780.85080797171
scalar RSUExampleScenario.node[60].appl 	meanClusterNodes 	8
scalar RSUExampleScenario.node[60].appl 	meanClusterHeadUtility 	8.4488599450716
scalar RSUExampleScenario.node[60].appl 	NumberofCH 	0.10810810810811
scalar RSUExampleScenario.node[60].appl 	NumberofON 	0.32432432432432
scalar RSUExampleScenario.node[60].appl 	NumberofFN 	0.56756756756757
scalar RSUExampleScenario.node[60].veinsmobility 	startTime 	144.7
scalar RSUExampleScenario.node[60].veinsmobility 	totalTime 	305.3
scalar RSUExampleScenario.node[60].veinsmobility 	stopTime 	450
scalar RSUExampleScenario.node[60].veinsmobility 	minSpeed 	0
scalar RSUExampleScenario.node[60].veinsmobility 	maxSpeed 	13.999993955332
scalar RSUExampleScenario.node[60].veinsmobility 	totalDistance 	1092.3874800971
scalar RSUExampleScenario.node[60].veinsmobility 	totalCO2Emission 	474.60177531606
scalar RSUExampleScenario.node[61].appl 	meanClusterNodes 	0
scalar RSUExampleScenario.node[61].appl 	meanClusterHeadUtility 	0
scalar RSUExampleScenario.node[61].appl 	NumberofCH 	0
scalar RSUExampleScenario.node[61].appl 	NumberofON 	0.43243243243243
scalar RSUExampleScenario.node[61].appl 	NumberofFN 	0.56756756756757
scalar RSUExampleScenario.node[61].veinsmobility 	startTime 	147.1
scalar RSUExampleScenario.node[61].veinsmobility 	totalTime 	302.9
scalar RSUExampleScenario.node[61].veinsmobility 	stopTime 	450
scalar RSUExampleScenario.node[61].veinsmobility 	minSpeed 	0
scalar RSUExampleScenario.node[61].veinsmobility 	maxSpeed 	13.999898436053
scalar RSUExampleScenario.node[61].veinsmobility 	totalDistance 	1059.2722973147
scalar RSUExampleScenario.node[61].veinsmobility 	totalCO2Emission 	468.21785599522
scalar RSUExampleScenario.node[62].appl 	meanClusterNodes 	9.5
scalar RSUExampleScenario.node[62].appl 	meanClusterHeadUtility 	17.927573906568
scalar RSUExampleScenario.node[62].appl 	NumberofCH 	0.054054054054054
scalar RSUExampleScenario.node[62].appl 	NumberofON 	0.32432432432432
scalar RSUExampleScenario.node[62].appl 	NumberofFN 	0.62162162162162
scalar RSUExampleScenario.node[62].veinsmobility 	startTime 	149.5
scalar RSUExampleScenario.node[62].veinsmobility 	totalTime 	300.5
scalar RSUExampleScenario.node[62].veinsmobility 	stopTime 	450
scalar RSUExampleScenario.node[62].veinsmobility 	minSpeed 	0
scalar RSUExampleScenario.node[62].veinsmobility 	maxSpeed 	13.999669786075
scalar RSUExampleScenario.node[62].veinsmobility 	totalDistance 	1025.7257582779
scalar RSUExampleScenario.node[62].veinsmobility 	totalCO2Emission 	464.42522052785
scalar RSUExampleScenario.node[63].appl 	meanClusterNodes 	3.5
scalar RSUExampleScenario.node[63].appl 	meanClusterHeadUtility 	7.8034625332194
scalar RSUExampleScenario.node[63].appl 	NumberofCH 	0.10810810810811
scalar RSUExampleScenario.node[63].appl 	NumberofON 	0.48648648648649
scalar RSUExampleScenario.node[63].appl 	NumberofFN 	0.40540540540541
scalar RSUExampleScenario.node[63].veinsmobility 	startTime 	151.9
scalar RSUExampleScenario.node[63].veinsmobility 	totalTime 	298.1
scalar RSUExampleScenario.node[63].veinsmobility 	stopTime 	450
scalar RSUExampleScenario.node[63].veinsmobility 	minSpeed 	0
scalar RSUExampleScenario.node[63].veinsmobility 	maxSpeed 	13.999749064855
scalar RSUExampleScenario.node[63].veinsmobility 	totalDistance 	987.17810541605
scalar RSUExampleScenario.node[63].veinsmobility 	totalCO2Emission 	450.87366106088
scalar RSUExampleScenario.node[64].appl 	meanClusterNodes 	3
scalar RSUExampleScenario.node[64].appl 	meanClusterHeadUtility 	16.735107610184
scalar RSUExampleScenario.node[64].appl 	NumberofCH 	0.054054054054054
scalar RSUExampleScenario.node[64].appl 	NumberofON 	0.18918918918919
scalar RSUExampleScenario.node[64].appl 	NumberofFN 	0.75675675675676
scalar RSUExampleScenario.node[64].veinsmobility 	startTime 	154.3
scalar RSUExampleScenario.node[64].veinsmobility 	totalTime 	295.7
scalar RSUExampleScenario.node[64].veinsmobility 	stopTime 	450
scalar RSUExampleScenario.node[64].veinsmobility 	minSpeed 	0
scalar RSUExampleScenario.node[64].veinsmobility 	maxSpeed 	13.999941268065
scalar RSUExampleScenario.node[64].veinsmobility 	totalDistance 	953.49519354397
scalar RSUExampleScenario.node[64].veinsmobility 	totalCO2Emission 	433.82833209583
scalar RSUExampleScenario.node[65].appl 	meanClusterNodes 	9.5
scalar RSUExampleScenario.node[65].appl 	meanClusterHeadUtility 	17.650670547153
scalar RSUExampleScenario.node[65].appl 	NumberofCH 	0.054054054054054
scalar RSUExampleScenario.node[65].appl 	NumberofON 	0.40540540540541
scalar RSUExampleScenario.node[65].appl 	NumberofFN 	0.54054054054054
scalar RSUExampleScenario.node[65].veinsmobility 	startTime 	156.7
scalar RSUExampleScenario.node[65].veinsmobility 	totalTime 	293.3
scalar RSUExampleScenario.node[65].veinsmobility 	stopTime 	450
scalar RSUExampleScenario.node[65].veinsmobility 	minSpeed 	0
scalar RSUExampleScenario.node[65].veinsmobility 	maxSpeed 	13.999936656707
scalar RSUExampleScenario.node[65].veinsmobility 	totalDistance 	940.37739460572
scalar RSUExampleScenario.node[65].veinsmobility 	totalCO2Emission 	425.29573100879
scalar RSUExampleScenario.node[66].appl 	meanClusterNodes 	0
scalar RSUExampleScenario.node[66].appl 	meanClusterHeadUtility 	0
scalar RSUExampleScenario.node[66].appl 	NumberofCH 	0
scalar RSUExampleScenario.node[66].appl 	NumberofON 	0.35135135135135
scalar RSUExampleScenario.node[66].appl 	NumberofFN 	0.64864864864865
scalar RSUExampleScenario.node[66].veinsmobility 	startTime 	159.1
scalar RSUExampleScenario.node[66].veinsmobility 	totalTime 	290.9
scalar RSUExampleScenario.node[66].veinsmobility 	stopTime 	450
scalar RSUExampleScenario.node[66].veinsmobility 	minSpeed 	0
scalar RSUExampleScenario.node[66].veinsmobility 	maxSpeed 	13.999876697829
scalar RSUExampleScenario.node[66].veinsmobility 	totalDistance 	928.25224120138
scalar RSUExampleScenario.node[66].veinsmobility 	totalCO2Emission 	423.69459691446
scalar RSUExampleScenario.node[67].appl 	meanClusterNodes 	5
scalar RSUExampleScenario.node[67].appl 	meanClusterHeadUtility 	16.851685839134
scalar RSUExampleScenario.node[67].appl 	NumberofCH 	0.054054054054054
scalar RSUExampleScenario.node[67].appl 	NumberofON 	0.37837837837838
scalar RSUExampleScenario.node[67].appl 	NumberofFN 	0.56756756756757
scalar RSUExampleScenario.node[67].veinsmobility 	startTime 	161.5
scalar RSUExampleScenario.node[67].veinsmobility 	totalTime 	288.5
scalar RSUExampleScenario.node[67].veinsmobility 	stopTime 	450
scalar RSUExampleScenario.node[67].veinsmobility 	minSpeed 	0
scalar RSUExampleScenario.node[67].veinsmobility 	maxSpeed 	13.999581023729
scalar RSUExampleScenario.node[67].veinsmobility 	totalDistance 	912.66169146133
scalar RSUExampleScenario.node[67].veinsmobility 	totalCO2Emission 	422.05061634454
scalar RSUExampleScenario.node[68].appl 	meanClusterNodes 	0
scalar RSUExampleScenario.node[68].appl 	meanClusterHeadUtility 	0
scalar RSUExampleScenario.node[68].appl 	NumberofCH 	0
scalar RSUExampleScenario.node[68].appl 	NumberofON 	0.2972972972973
scalar RSUExampleScenario.node[68].appl 	NumberofFN 	0.7027027027027
scalar RSUExampleScenario.node[68].veinsmobility 	startTime 	163.9
scalar RSUExampleScenario.node[68].veinsmobility 	totalTime 	286.1
scalar RSUExampleScenario.node[68].veinsmobility 	stopTime 	450
scalar RSUExampleScenario.node[68].veinsmobility 	minSpeed 	0
scalar RSUExampleScenario.node[68].veinsmobility 	maxSpeed 	13.999728195686
scalar RSUExampleScenario.node[68].veinsmobility 	totalDistance 	891.40711047788
scalar RSUExampleScenario.node[68].veinsmobility 	totalCO2Emission 	419.20993307849
scalar RSUExampleScenario.node[69].appl 	meanClusterNodes 	0
scalar RSUExampleScenario.node[69].appl 	meanClusterHeadUtility 	0
scalar RSUExampleScenario.node[69].appl 	NumberofCH 	0.054054054054054
scalar RSUExampleScenario.node[69].appl 	NumberofON 	0
scalar RSUExampleScenario.node[69].appl 	NumberofFN 	0.94594594594595
scalar RSUExampleScenario.node[69].veinsmobility 	startTime 	166.3
scalar RSUExampleScenario.node[69].veinsmobility 	totalTime 	283.7
scalar RSUExampleScenario.node[69].veinsmobility 	stopTime 	450
scalar RSUExampleScenario.node[69].veinsmobility 	minSpeed 	0
scalar RSUExampleScenario.node[69].veinsmobility 	maxSpeed 	13.999263325464
scalar RSUExampleScenario.node[69].veinsmobility 	totalDistance 	859.50117673383
scalar RSUExampleScenario.node[69].veinsmobility 	totalCO2Emission 	412.18652212466
scalar RSUExampleScenario.node[7].appl 	meanClusterNodes 	2.5
scalar RSUExampleScenario.node[7].appl 	meanClusterHeadUtility 	20.831079612772
scalar RSUExampleScenario.node[7].appl 	NumberofCH 	0.054054054054054
scalar RSUExampleScenario.node[7].appl 	NumberofON 	0.35135135135135
scalar RSUExampleScenario.node[7].appl 	NumberofFN 	0.59459459459459
scalar RSUExampleScenario.node[7].veinsmobility 	startTime 	16.9
scalar RSUExampleScenario.node[7].veinsmobility 	totalTime 	433.1
scalar RSUExampleScenario.node[7].veinsmobility 	stopTime 	450
scalar RSUExampleScenario.node[7].veinsmobility 	minSpeed 	0
scalar RSUExampleScenario.node[7].veinsmobility 	maxSpeed 	13.999952135119
scalar RSUExampleScenario.node[7].veinsmobility 	totalDistance 	2885.2840933597
scalar RSUExampleScenario.node[7].veinsmobility 	totalCO2Emission 	775.05552325555
scalar RSUExampleScenario.node[70].appl 	meanClusterNodes 	0
scalar RSUExampleScenario.node[70].appl 	meanClusterHeadUtility 	0
scalar RSUExampleScenario.node[70].appl 	NumberofCH 	0
scalar RSUExampleScenario.node[70].appl 	NumberofON 	0.56756756756757
scalar RSUExampleScenario.node[70].appl 	NumberofFN 	0.43243243243243
scalar RSUExampleScenario.node[70].veinsmobility 	startTime 	168.8
scalar RSUExampleScenario.node[70].veinsmobility 	totalTime 	281.2
scalar RSUExampleScenario.node[70].veinsmobility 	stopTime 	450
scalar RSUExampleScenario.node[70].veinsmobility 	minSpeed 	0
scalar RSUExampleScenario.node[70].veinsmobility 	maxSpeed 	13.999798135401
scalar RSUExampleScenario.node[70].veinsmobility 	totalDistance 	825.90008582028
scalar RSUExampleScenario.node[70].veinsmobility 	totalCO2Emission 	407.52356944427
scalar RSUExampleScenario.node[71].appl 	meanClusterNodes 	7
scalar RSUExampleScenario.node[71].appl 	meanClusterHeadUtility 	17.03553332257
scalar RSUExampleScenario.node[71].appl 	NumberofCH 	0.054054054054054
scalar RSUExampleScenario.node[71].appl 	NumberofON 	0.21621621621622
scalar RSUExampleScenario.node[71].appl 	NumberofFN 	0.72972972972973
scalar RSUExampleScenario.node[71].veinsmobility 	startTime 	171.2
scalar RSUExampleScenario.node[71].veinsmobility 	totalTime 	278.8
scalar RSUExampleScenario.node[71].veinsmobility 	stopTime 	450
scalar RSUExampleScenario.node[71].veinsmobility 	minSpeed 	0
scalar RSUExampleScenario.node[71].veinsmobility 	maxSpeed 	13.999668915689
scalar RSUExampleScenario.node[71].veinsmobility 	totalDistance 	791.65434773278
scalar RSUExampleScenario.node[71].veinsmobility 	totalCO2Emission 	402.68844372025
scalar RSUExampleScenario.node[72].appl 	meanClusterNodes 	0
scalar RSUExampleScenario.node[72].appl 	meanClusterHeadUtility 	0
scalar RSUExampleScenario.node[72].appl 	NumberofCH 	0
scalar RSUExampleScenario.node[72].appl 	NumberofON 	0.2972972972973
scalar RSUExampleScenario.node[72].appl 	NumberofFN 	0.7027027027027
scalar RSUExampleScenario.node[72].veinsmobility 	startTime 	173.6
scalar RSUExampleScenario.node[72].veinsmobility 	totalTime 	276.4
scalar RSUExampleScenario.node[72].veinsmobility 	stopTime 	450
scalar RSUExampleScenario.node[72].veinsmobility 	minSpeed 	0
scalar RSUExampleScenario.node[72].veinsmobility 	maxSpeed 	13.999915824647
scalar RSUExampleScenario.node[72].veinsmobility 	totalDistance 	758.26393154736
scalar RSUExampleScenario.node[72].veinsmobility 	totalCO2Emission 	396.42435858348
scalar RSUExampleScenario.node[73].appl 	meanClusterNodes 	2.5
scalar RSUExampleScenario.node[73].appl 	meanClusterHeadUtility 	17.041694580854
scalar RSUExampleScenario.node[73].appl 	NumberofCH 	0.054054054054054
scalar RSUExampleScenario.node[73].appl 	NumberofON 	0.51351351351351
scalar RSUExampleScenario.node[73].appl 	NumberofFN 	0.43243243243243
scalar RSUExampleScenario.node[73].veinsmobility 	startTime 	176
scalar RSUExampleScenario.node[73].veinsmobility 	totalTime 	274
scalar RSUExampleScenario.node[73].veinsmobility 	stopTime 	450
scalar RSUExampleScenario.node[73].veinsmobility 	minSpeed 	0
scalar RSUExampleScenario.node[73].veinsmobility 	maxSpeed 	13.999500053513
scalar RSUExampleScenario.node[73].veinsmobility 	totalDistance 	725.7841188799
scalar RSUExampleScenario.node[73].veinsmobility 	totalCO2Emission 	391.48784301637
scalar RSUExampleScenario.node[74].appl 	meanClusterNodes 	0
scalar RSUExampleScenario.node[74].appl 	meanClusterHeadUtility 	0
scalar RSUExampleScenario.node[74].appl 	NumberofCH 	0
scalar RSUExampleScenario.node[74].appl 	NumberofON 	0.54054054054054
scalar RSUExampleScenario.node[74].appl 	NumberofFN 	0.45945945945946
scalar RSUExampleScenario.node[74].veinsmobility 	startTime 	178.4
scalar RSUExampleScenario.node[74].veinsmobility 	totalTime 	271.6
scalar RSUExampleScenario.node[74].veinsmobility 	stopTime 	450
scalar RSUExampleScenario.node[74].veinsmobility 	minSpeed 	0
scalar RSUExampleScenario.node[74].veinsmobility 	maxSpeed 	13.999012497377
scalar RSUExampleScenario.node[74].veinsmobility 	totalDistance 	691.28391231401
scalar RSUExampleScenario.node[74].veinsmobility 	totalCO2Emission 	385.4813437857
scalar RSUExampleScenario.node[75].appl 	meanClusterNodes 	0
scalar RSUExampleScenario.node[75].appl 	meanClusterHeadUtility 	0
scalar RSUExampleScenario.node[75].appl 	NumberofCH 	0
scalar RSUExampleScenario.node[75].appl 	NumberofON 	0.45945945945946
scalar RSUExampleScenario.node[75].appl 	NumberofFN 	0.54054054054054
scalar RSUExampleScenario.node[75].veinsmobility 	startTime 	180.8
scalar RSUExampleScenario.node[75].veinsmobility 	totalTime 	269.2
scalar RSUExampleScenario.node[75].veinsmobility 	stopTime 	450
scalar RSUExampleScenario.node[75].veinsmobility 	minSpeed 	0
scalar RSUExampleScenario.node[75].veinsmobility 	maxSpeed 	13.999778589578
scalar RSUExampleScenario.node[75].veinsmobility 	totalDistance 	658.61728077628
scalar RSUExampleScenario.node[75].veinsmobility 	totalCO2Emission 	379.57135826858
scalar RSUExampleScenario.node[76].appl 	meanClusterNodes 	8.5
scalar RSUExampleScenario.node[76].appl 	meanClusterHeadUtility 	17.188064516486
scalar RSUExampleScenario.node[76].appl 	NumberofCH 	0.054054054054054
scalar RSUExampleScenario.node[76].appl 	NumberofON 	0.24324324324324
scalar RSUExampleScenario.node[76].appl 	NumberofFN 	0.7027027027027
scalar RSUExampleScenario.node[76].veinsmobility 	startTime 	183.2
scalar RSUExampleScenario.node[76].veinsmobility 	totalTime 	266.8
scalar RSUExampleScenario.node[76].veinsmobility 	stopTime 	450
scalar RSUExampleScenario.node[76].veinsmobility 	minSpeed 	0
scalar RSUExampleScenario.node[76].veinsmobility 	maxSpeed 	13.998997053471
scalar RSUExampleScenario.node[76].veinsmobility 	totalDistance 	624.51624863703
scalar RSUExampleScenario.node[76].veinsmobility 	totalCO2Emission 	374.73483508271
scalar RSUExampleScenario.node[77].appl 	meanClusterNodes 	4
scalar RSUExampleScenario.node[77].appl 	meanClusterHeadUtility 	18.559310222408
scalar RSUExampleScenario.node[77].appl 	NumberofCH 	0.054054054054054
scalar RSUExampleScenario.node[77].appl 	NumberofON 	0.48648648648649
scalar RSUExampleScenario.node[77].appl 	NumberofFN 	0.45945945945946
scalar RSUExampleScenario.node[77].veinsmobility 	startTime 	185.6
scalar RSUExampleScenario.node[77].veinsmobility 	totalTime 	264.4
scalar RSUExampleScenario.node[77].veinsmobility 	stopTime 	450
scalar RSUExampleScenario.node[77].veinsmobility 	minSpeed 	0
scalar RSUExampleScenario.node[77].veinsmobility 	maxSpeed 	13.999895289212
scalar RSUExampleScenario.node[77].veinsmobility 	totalDistance 	590.78286260674
scalar RSUExampleScenario.node[77].veinsmobility 	totalCO2Emission 	367.3234091463
scalar RSUExampleScenario.node[78].appl 	meanClusterNodes 	5.5
scalar RSUExampleScenario.node[78].appl 	meanClusterHeadUtility 	18.042348899919
scalar RSUExampleScenario.node[78].appl 	NumberofCH 	0.054054054054054
scalar RSUExampleScenario.node[78].appl 	NumberofON 	0.2972972972973
scalar RSUExampleScenario.node[78].appl 	NumberofFN 	0.64864864864865
scalar RSUExampleScenario.node[78].veinsmobility 	startTime 	188
scalar RSUExampleScenario.node[78].veinsmobility 	totalTime 	262
scalar RSUExampleScenario.node[78].veinsmobility 	stopTime 	450
scalar RSUExampleScenario.node[78].veinsmobility 	minSpeed 	0
scalar RSUExampleScenario.node[78].veinsmobility 	maxSpeed 	13.997967861332
scalar RSUExampleScenario.node[78].veinsmobility 	totalDistance 	556.0551077301
scalar RSUExampleScenario.node[78].veinsmobility 	totalCO2Emission 	363.61169188462
scalar RSUExampleScenario.node[79].appl 	meanClusterNodes 	3.5
scalar RSUExampleScenario.node[79].appl 	meanClusterHeadUtility 	9.61170193331
scalar RSUExampleScenario.node[79].appl 	NumberofCH 	0.10810810810811
scalar RSUExampleScenario.node[79].appl 	NumberofON 	0.40540540540541
scalar RSUExampleScenario.node[79].appl 	NumberofFN 	0.48648648648649
scalar RSUExampleScenario.node[79].veinsmobility 	startTime 	190.4
scalar RSUExampleScenario.node[79].veinsmobility 	totalTime 	259.6
scalar RSUExampleScenario.node[79].veinsmobility 	stopTime 	450
scalar RSUExampleScenario.node[79].veinsmobility 	minSpeed 	0
scalar RSUExampleScenario.node[79].veinsmobility 	maxSpeed 	13.999535396984
scalar RSUExampleScenario.node[79].veinsmobility 	totalDistance 	522.88646170913
scalar RSUExampleScenario.node[79].veinsmobility 	totalCO2Emission 	356.57961497474
scalar RSUExampleScenario.node[8].appl 	meanClusterNodes 	1.5
scalar RSUExampleScenario.node[8].appl 	meanClusterHeadUtility 	9.2676064436867
scalar RSUExampleScenario.node[8].appl 	NumberofCH 	0.10810810810811
scalar RSUExampleScenario.node[8].appl 	NumberofON 	0.35135135135135
scalar RSUExampleScenario.node[8].appl 	NumberofFN 	0.54054054054054
scalar RSUExampleScenario.node[8].veinsmobility 	startTime 	19.3
scalar RSUExampleScenario.node[8].veinsmobility 	totalTime 	430.7
scalar RSUExampleScenario.node[8].veinsmobility 	stopTime 	450
scalar RSUExampleScenario.node[8].veinsmobility 	minSpeed 	0
scalar RSUExampleScenario.node[8].veinsmobility 	maxSpeed 	13.999877346745
scalar RSUExampleScenario.node[8].veinsmobility 	totalDistance 	2859.4996642458
scalar RSUExampleScenario.node[8].veinsmobility 	totalCO2Emission 	773.08091273109
scalar RSUExampleScenario.node[80].appl 	meanClusterNodes 	0
scalar RSUExampleScenario.node[80].appl 	meanClusterHeadUtility 	0
scalar RSUExampleScenario.node[80].appl 	NumberofCH 	0.054054054054054
scalar RSUExampleScenario.node[80].appl 	NumberofON 	0.40540540540541
scalar RSUExampleScenario.node[80].appl 	NumberofFN 	0.54054054054054
scalar RSUExampleScenario.node[80].veinsmobility 	startTime 	192.9
scalar RSUExampleScenario.node[80].veinsmobility 	totalTime 	257.1
scalar RSUExampleScenario.node[80].veinsmobility 	stopTime 	450
scalar RSUExampleScenario.node[80].veinsmobility 	minSpeed 	0
scalar RSUExampleScenario.node[80].veinsmobility 	maxSpeed 	13.998523530148
scalar RSUExampleScenario.node[80].veinsmobility 	totalDistance 	489.57395114658
scalar RSUExampleScenario.node[80].veinsmobility 	totalCO2Emission 	350.23377284041
scalar RSUExampleScenario.node[81].appl 	meanClusterNodes 	4.25
scalar RSUExampleScenario.node[81].appl 	meanClusterHeadUtility 	8.7575023948144
scalar RSUExampleScenario.node[81].appl 	NumberofCH 	0.10810810810811
scalar RSUExampleScenario.node[81].appl 	NumberofON 	0.54054054054054
scalar RSUExampleScenario.node[81].appl 	NumberofFN 	0.35135135135135
scalar RSUExampleScenario.node[81].veinsmobility 	startTime 	195.3
scalar RSUExampleScenario.node[81].veinsmobility 	totalTime 	254.7
scalar RSUExampleScenario.node[81].veinsmobility 	stopTime 	450
scalar RSUExampleScenario.node[81].veinsmobility 	minSpeed 	0
scalar RSUExampleScenario.node[81].veinsmobility 	maxSpeed 	13.999513463804
scalar RSUExampleScenario.node[81].veinsmobility 	totalDistance 	455.89537749177
scalar RSUExampleScenario.node[81].veinsmobility 	totalCO2Emission 	344.7793073815
scalar RSUExampleScenario.node[82].appl 	meanClusterNodes 	5
scalar RSUExampleScenario.node[82].appl 	meanClusterHeadUtility 	20.527028964725
scalar RSUExampleScenario.node[82].appl 	NumberofCH 	0.054054054054054
scalar RSUExampleScenario.node[82].appl 	NumberofON 	0.40540540540541
scalar RSUExampleScenario.node[82].appl 	NumberofFN 	0.54054054054054
scalar RSUExampleScenario.node[82].veinsmobility 	startTime 	197.7
scalar RSUExampleScenario.node[82].veinsmobility 	totalTime 	252.3
scalar RSUExampleScenario.node[82].veinsmobility 	stopTime 	450
scalar RSUExampleScenario.node[82].veinsmobility 	minSpeed 	0
scalar RSUExampleScenario.node[82].veinsmobility 	maxSpeed 	13.999126387597
scalar RSUExampleScenario.node[82].veinsmobility 	totalDistance 	421.04746447859
scalar RSUExampleScenario.node[82].veinsmobility 	totalCO2Emission 	340.07218637942
scalar RSUExampleScenario.node[83].appl 	meanClusterNodes 	0
scalar RSUExampleScenario.node[83].appl 	meanClusterHeadUtility 	0
scalar RSUExampleScenario.node[83].appl 	NumberofCH 	0.10810810810811
scalar RSUExampleScenario.node[83].appl 	NumberofON 	0.054054054054054
scalar RSUExampleScenario.node[83].appl 	NumberofFN 	0.83783783783784
scalar RSUExampleScenario.node[83].veinsmobility 	startTime 	200.1
scalar RSUExampleScenario.node[83].veinsmobility 	totalTime 	249.9
scalar RSUExampleScenario.node[83].veinsmobility 	stopTime 	450
scalar RSUExampleScenario.node[83].veinsmobility 	minSpeed 	0
scalar RSUExampleScenario.node[83].veinsmobility 	maxSpeed 	13.999061284252
scalar RSUExampleScenario.node[83].veinsmobility 	totalDistance 	388.62901617546
scalar RSUExampleScenario.node[83].veinsmobility 	totalCO2Emission 	333.11332178612
scalar RSUExampleScenario.node[84].appl 	meanClusterNodes 	8
scalar RSUExampleScenario.node[84].appl 	meanClusterHeadUtility 	18.030409779334
scalar RSUExampleScenario.node[84].appl 	NumberofCH 	0.054054054054054
scalar RSUExampleScenario.node[84].appl 	NumberofON 	0.37837837837838
scalar RSUExampleScenario.node[84].appl 	NumberofFN 	0.56756756756757
scalar RSUExampleScenario.node[84].veinsmobility 	startTime 	202.5
scalar RSUExampleScenario.node[84].veinsmobility 	totalTime 	247.5
scalar RSUExampleScenario.node[84].veinsmobility 	stopTime 	450
scalar RSUExampleScenario.node[84].veinsmobility 	minSpeed 	0
scalar RSUExampleScenario.node[84].veinsmobility 	maxSpeed 	13.998078072539
scalar RSUExampleScenario.node[84].veinsmobility 	totalDistance 	356.3749771
scalar RSUExampleScenario.node[84].veinsmobility 	totalCO2Emission 	328.42359817023
scalar RSUExampleScenario.node[85].appl 	meanClusterNodes 	0
scalar RSUExampleScenario.node[85].appl 	meanClusterHeadUtility 	0
scalar RSUExampleScenario.node[85].appl 	NumberofCH 	0
scalar RSUExampleScenario.node[85].appl 	NumberofON 	0.51351351351351
scalar RSUExampleScenario.node[85].appl 	NumberofFN 	0.48648648648649
scalar RSUExampleScenario.node[85].veinsmobility 	startTime 	204.9
scalar RSUExampleScenario.node[85].veinsmobility 	totalTime 	245.1
scalar RSUExampleScenario.node[85].veinsmobility 	stopTime 	450
scalar RSUExampleScenario.node[85].veinsmobility 	minSpeed 	0
scalar RSUExampleScenario.node[85].veinsmobility 	maxSpeed 	13.988343467265
scalar RSUExampleScenario.node[85].veinsmobility 	totalDistance 	322.36436147243
scalar RSUExampleScenario.node[85].veinsmobility 	totalCO2Emission 	322.1957090373
scalar RSUExampleScenario.node[86].appl 	meanClusterNodes 	0
scalar RSUExampleScenario.node[86].appl 	meanClusterHeadUtility 	0
scalar RSUExampleScenario.node[86].appl 	NumberofCH 	0
scalar RSUExampleScenario.node[86].appl 	NumberofON 	0.48648648648649
scalar RSUExampleScenario.node[86].appl 	NumberofFN 	0.51351351351351
scalar RSUExampleScenario.node[86].veinsmobility 	startTime 	207.3
scalar RSUExampleScenario.node[86].veinsmobility 	totalTime 	242.7
scalar RSUExampleScenario.node[86].veinsmobility 	stopTime 	450
scalar RSUExampleScenario.node[86].veinsmobility 	minSpeed 	0
scalar RSUExampleScenario.node[86].veinsmobility 	maxSpeed 	13.795688388848
scalar RSUExampleScenario.node[86].veinsmobility 	totalDistance 	286.94155891326
scalar RSUExampleScenario.node[86].veinsmobility 	totalCO2Emission 	315.12956880708
scalar RSUExampleScenario.node[87].appl 	meanClusterNodes 	7.5
scalar RSUExampleScenario.node[87].appl 	meanClusterHeadUtility 	17.344640190103
scalar RSUExampleScenario.node[87].appl 	NumberofCH 	0.054054054054054
scalar RSUExampleScenario.node[87].appl 	NumberofON 	0.43243243243243
scalar RSUExampleScenario.node[87].appl 	NumberofFN 	0.51351351351351
scalar RSUExampleScenario.node[87].veinsmobility 	startTime 	209.7
scalar RSUExampleScenario.node[87].veinsmobility 	totalTime 	240.3
scalar RSUExampleScenario.node[87].veinsmobility 	stopTime 	450
scalar RSUExampleScenario.node[87].veinsmobility 	minSpeed 	0
scalar RSUExampleScenario.node[87].veinsmobility 	maxSpeed 	13.879622179642
scalar RSUExampleScenario.node[87].veinsmobility 	totalDistance 	248.67120688908
scalar RSUExampleScenario.node[87].veinsmobility 	totalCO2Emission 	298.24129507906
scalar RSUExampleScenario.node[88].appl 	meanClusterNodes 	0
scalar RSUExampleScenario.node[88].appl 	meanClusterHeadUtility 	0
scalar RSUExampleScenario.node[88].appl 	NumberofCH 	0
scalar RSUExampleScenario.node[88].appl 	NumberofON 	0.43243243243243
scalar RSUExampleScenario.node[88].appl 	NumberofFN 	0.56756756756757
scalar RSUExampleScenario.node[88].veinsmobility 	startTime 	212.1
scalar RSUExampleScenario.node[88].veinsmobility 	totalTime 	237.9
scalar RSUExampleScenario.node[88].veinsmobility 	stopTime 	450
scalar RSUExampleScenario.node[88].veinsmobility 	minSpeed 	0
scalar RSUExampleScenario.node[88].veinsmobility 	maxSpeed 	13.788324096731
scalar RSUExampleScenario.node[88].veinsmobility 	totalDistance 	226.11271288716
scalar RSUExampleScenario.node[88].veinsmobility 	totalCO2Emission 	286.6312400146
scalar RSUExampleScenario.node[89].appl 	meanClusterNodes 	10.5
scalar RSUExampleScenario.node[89].appl 	meanClusterHeadUtility 	17.655488381141
scalar RSUExampleScenario.node[89].appl 	NumberofCH 	0.054054054054054
scalar RSUExampleScenario.node[89].appl 	NumberofON 	0.37837837837838
scalar RSUExampleScenario.node[89].appl 	NumberofFN 	0.56756756756757
scalar RSUExampleScenario.node[89].veinsmobility 	startTime 	214.5
scalar RSUExampleScenario.node[89].veinsmobility 	totalTime 	235.5
scalar RSUExampleScenario.node[89].veinsmobility 	stopTime 	450
scalar RSUExampleScenario.node[89].veinsmobility 	minSpeed 	0
scalar RSUExampleScenario.node[89].veinsmobility 	maxSpeed 	13.78721087323
scalar RSUExampleScenario.node[89].veinsmobility 	totalDistance 	215.28651337294
scalar RSUExampleScenario.node[89].veinsmobility 	totalCO2Emission 	283.52058399579
scalar RSUExampleScenario.node[9].appl 	meanClusterNodes 	4.25
scalar RSUExampleScenario.node[9].appl 	meanClusterHeadUtility 	8.8877839180579
scalar RSUExampleScenario.node[9].appl 	NumberofCH 	0.10810810810811
scalar RSUExampleScenario.node[9].appl 	NumberofON 	0.13513513513514
scalar RSUExampleScenario.node[9].appl 	NumberofFN 	0.75675675675676
scalar RSUExampleScenario.node[9].veinsmobility 	startTime 	21.7
scalar RSUExampleScenario.node[9].veinsmobility 	totalTime 	428.3
scalar RSUExampleScenario.node[9].veinsmobility 	stopTime 	450
scalar RSUExampleScenario.node[9].veinsmobility 	minSpeed 	0
scalar RSUExampleScenario.node[9].veinsmobility 	maxSpeed 	13.999964216948
scalar RSUExampleScenario.node[9].veinsmobility 	totalDistance 	2823.3438493892
scalar RSUExampleScenario.node[9].veinsmobility 	totalCO2Emission 	761.33797702791
scalar RSUExampleScenario.node[90].appl 	meanClusterNodes 	7
scalar RSUExampleScenario.node[90].appl 	meanClusterHeadUtility 	18.420362321856
scalar RSUExampleScenario.node[90].appl 	NumberofCH 	0.054054054054054
scalar RSUExampleScenario.node[90].appl 	NumberofON 	0.43243243243243
scalar RSUExampleScenario.node[90].appl 	NumberofFN 	0.51351351351351
scalar RSUExampleScenario.node[90].veinsmobility 	startTime 	217
scalar RSUExampleScenario.node[90].veinsmobility 	totalTime 	233
scalar RSUExampleScenario.node[90].veinsmobility 	stopTime 	450
scalar RSUExampleScenario.node[90].veinsmobility 	minSpeed 	0
scalar RSUExampleScenario.node[90].veinsmobility 	maxSpeed 	13.821099388492
scalar RSUExampleScenario.node[90].veinsmobility 	totalDistance 	202.04850070287
scalar RSUExampleScenario.node[90].veinsmobility 	totalCO2Emission 	280.15724834933
scalar RSUExampleScenario.node[91].appl 	meanClusterNodes 	0
scalar RSUExampleScenario.node[91].appl 	meanClusterHeadUtility 	0
scalar RSUExampleScenario.node[91].appl 	NumberofCH 	0
scalar RSUExampleScenario.node[91].appl 	NumberofON 	0.48648648648649
scalar RSUExampleScenario.node[91].appl 	NumberofFN 	0.51351351351351
scalar RSUExampleScenario.node[91].veinsmobility 	startTime 	219.4
scalar RSUExampleScenario.node[91].veinsmobility 	totalTime 	230.6
scalar RSUExampleScenario.node[91].veinsmobility 	stopTime 	450
scalar RSUExampleScenario.node[91].veinsmobility 	minSpeed 	0
scalar RSUExampleScenario.node[91].veinsmobility 	maxSpeed 	13.795365271426
scalar RSUExampleScenario.node[91].veinsmobility 	totalDistance 	184.4206202172
scalar RSUExampleScenario.node[91].veinsmobility 	totalCO2Emission 	278.20955197855
scalar RSUExampleScenario.node[92].appl 	meanClusterNodes 	5
scalar RSUExampleScenario.node[92].appl 	meanClusterHeadUtility 	19.133272609454
scalar RSUExampleScenario.node[92].appl 	NumberofCH 	0.054054054054054
scalar RSUExampleScenario.node[92].appl 	NumberofON 	0.37837837837838
scalar RSUExampleScenario.node[92].appl 	NumberofFN 	0.56756756756757
scalar RSUExampleScenario.node[92].veinsmobility 	startTime 	221.8
scalar RSUExampleScenario.node[92].veinsmobility 	totalTime 	228.2
scalar RSUExampleScenario.node[92].veinsmobility 	stopTime 	450
scalar RSUExampleScenario.node[92].veinsmobility 	minSpeed 	0
scalar RSUExampleScenario.node[92].veinsmobility 	maxSpeed 	13.810312663415
scalar RSUExampleScenario.node[92].veinsmobility 	totalDistance 	148.87251764975
scalar RSUExampleScenario.node[92].veinsmobility 	totalCO2Emission 	263.70111984034
scalar RSUExampleScenario.node[93].appl 	meanClusterNodes 	6.5
scalar RSUExampleScenario.node[93].appl 	meanClusterHeadUtility 	9.5037735449399
scalar RSUExampleScenario.node[93].appl 	NumberofCH 	0.10810810810811
scalar RSUExampleScenario.node[93].appl 	NumberofON 	0.13513513513514
scalar RSUExampleScenario.node[93].appl 	NumberofFN 	0.75675675675676
scalar RSUExampleScenario.node[93].veinsmobility 	startTime 	224.2
scalar RSUExampleScenario.node[93].veinsmobility 	totalTime 	225.8
scalar RSUExampleScenario.node[93].veinsmobility 	stopTime 	450
scalar RSUExampleScenario.node[93].veinsmobility 	minSpeed 	0
scalar RSUExampleScenario.node[93].veinsmobility 	maxSpeed 	13.767807296407
scalar RSUExampleScenario.node[93].veinsmobility 	totalDistance 	122.82142005873
scalar RSUExampleScenario.node[93].veinsmobility 	totalCO2Emission 	250.61460719794
scalar RSUExampleScenario.node[94].appl 	meanClusterNodes 	7.5
scalar RSUExampleScenario.node[94].appl 	meanClusterHeadUtility 	17.116309360343
scalar RSUExampleScenario.node[94].appl 	NumberofCH 	0.054054054054054
scalar RSUExampleScenario.node[94].appl 	NumberofON 	0.18918918918919
scalar RSUExampleScenario.node[94].appl 	NumberofFN 	0.75675675675676
scalar RSUExampleScenario.node[94].veinsmobility 	startTime 	226.6
scalar RSUExampleScenario.node[94].veinsmobility 	totalTime 	223.4
scalar RSUExampleScenario.node[94].veinsmobility 	stopTime 	450
scalar RSUExampleScenario.node[94].veinsmobility 	minSpeed 	0
scalar RSUExampleScenario.node[94].veinsmobility 	maxSpeed 	13.820032180189
scalar RSUExampleScenario.node[94].veinsmobility 	totalDistance 	111.74312698668
scalar RSUExampleScenario.node[94].veinsmobility 	totalCO2Emission 	245.90076991972
scalar RSUExampleScenario.node[95].appl 	meanClusterNodes 	6
scalar RSUExampleScenario.node[95].appl 	meanClusterHeadUtility 	19.642135126977
scalar RSUExampleScenario.node[95].appl 	NumberofCH 	0.054054054054054
scalar RSUExampleScenario.node[95].appl 	NumberofON 	0.32432432432432
scalar RSUExampleScenario.node[95].appl 	NumberofFN 	0.62162162162162
scalar RSUExampleScenario.node[95].veinsmobility 	startTime 	229
scalar RSUExampleScenario.node[95].veinsmobility 	totalTime 	221
scalar RSUExampleScenario.node[95].veinsmobility 	stopTime 	450
scalar RSUExampleScenario.node[95].veinsmobility 	minSpeed 	0
scalar RSUExampleScenario.node[95].veinsmobility 	maxSpeed 	13.883015009493
scalar RSUExampleScenario.node[95].veinsmobility 	totalDistance 	98.835900266824
scalar RSUExampleScenario.node[95].veinsmobility 	totalCO2Emission 	242.50615259609
scalar RSUExampleScenario.node[96].appl 	meanClusterNodes 	8.5
scalar RSUExampleScenario.node[96].appl 	meanClusterHeadUtility 	18.761889202028
scalar RSUExampleScenario.node[96].appl 	NumberofCH 	0.054054054054054
scalar RSUExampleScenario.node[96].appl 	NumberofON 	0.43243243243243
scalar RSUExampleScenario.node[96].appl 	NumberofFN 	0.51351351351351
scalar RSUExampleScenario.node[96].veinsmobility 	startTime 	231.4
scalar RSUExampleScenario.node[96].veinsmobility 	totalTime 	218.6
scalar RSUExampleScenario.node[96].veinsmobility 	stopTime 	450
scalar RSUExampleScenario.node[96].veinsmobility 	minSpeed 	0
scalar RSUExampleScenario.node[96].veinsmobility 	maxSpeed 	13.802560685207
scalar RSUExampleScenario.node[96].veinsmobility 	totalDistance 	83.092612166974
scalar RSUExampleScenario.node[96].veinsmobility 	totalCO2Emission 	239.78246398744
scalar RSUExampleScenario.node[97].appl 	meanClusterNodes 	0
scalar RSUExampleScenario.node[97].appl 	meanClusterHeadUtility 	0
scalar RSUExampleScenario.node[97].appl 	NumberofCH 	0
scalar RSUExampleScenario.node[97].appl 	NumberofON 	0.51351351351351
scalar RSUExampleScenario.node[97].appl 	NumberofFN 	0.48648648648649
scalar RSUExampleScenario.node[97].veinsmobility 	startTime 	233.8
scalar RSUExampleScenario.node[97].veinsmobility 	totalTime 	216.2
scalar RSUExampleScenario.node[97].veinsmobility 	stopTime 	450
scalar RSUExampleScenario.node[97].veinsmobility 	minSpeed 	0
scalar RSUExampleScenario.node[97].veinsmobility 	maxSpeed 	12.238791308699
scalar RSUExampleScenario.node[97].veinsmobility 	totalDistance 	55.59519919737
scalar RSUExampleScenario.node[97].veinsmobility 	totalCO2Emission 	231.62468489676
scalar RSUExampleScenario.node[98].appl 	meanClusterNodes 	3
scalar RSUExampleScenario.node[98].appl 	meanClusterHeadUtility 	17.385308509791
scalar RSUExampleScenario.node[98].appl 	NumberofCH 	0.054054054054054
scalar RSUExampleScenario.node[98].appl 	NumberofON 	0.54054054054054
scalar RSUExampleScenario.node[98].appl 	NumberofFN 	0.40540540540541
scalar RSUExampleScenario.node[98].veinsmobility 	startTime 	236.2
scalar RSUExampleScenario.node[98].veinsmobility 	totalTime 	213.8
scalar RSUExampleScenario.node[98].veinsmobility 	stopTime 	450
scalar RSUExampleScenario.node[98].veinsmobility 	minSpeed 	0
scalar RSUExampleScenario.node[98].veinsmobility 	maxSpeed 	7.4772307981536
scalar RSUExampleScenario.node[98].veinsmobility 	totalDistance 	20.829014986339
scalar RSUExampleScenario.node[98].veinsmobility 	totalCO2Emission 	216.10389400528
scalar RSUExampleScenario.node[99].appl 	meanClusterNodes 	8
scalar RSUExampleScenario.node[99].appl 	meanClusterHeadUtility 	18.912052803208
scalar RSUExampleScenario.node[99].appl 	NumberofCH 	0.054054054054054
scalar RSUExampleScenario.node[99].appl 	NumberofON 	0.24324324324324
scalar RSUExampleScenario.node[99].appl 	NumberofFN 	0.7027027027027
scalar RSUExampleScenario.node[99].veinsmobility 	startTime 	238.6
scalar RSUExampleScenario.node[99].veinsmobility 	totalTime 	211.4
scalar RSUExampleScenario.node[99].veinsmobility 	stopTime 	450
scalar RSUExampleScenario.node[99].veinsmobility 	minSpeed 	0
scalar RSUExampleScenario.node[99].veinsmobility 	maxSpeed 	3.015157438826
scalar RSUExampleScenario.node[99].veinsmobility 	totalDistance 	3.258713466358
scalar RSUExampleScenario.node[99].veinsmobility 	totalCO2Emission 	207.04815032463
