version 2
run statisticLeach-634-20150323-12:57:49-12660
attr c 7
attr configname statisticLeach
attr datetime 20150323-12:57:49
attr experiment statisticLeach
attr inifile omnetpp.ini
attr iterationvars "$p=1/5, $c=7"
attr iterationvars2 "$p=1/5, $c=7, $repetition=4"
attr measurement "$p=1/5, $c=7"
attr network RSUExampleScenario
attr p 1/5
attr processid 12660
attr repetition 4
attr replication #4
attr resultdir results
attr runnumber 634
attr seedset 634

scalar . 	c 	7
scalar RSUExampleScenario.node[0].appl 	meanClusterNodes 	3
scalar RSUExampleScenario.node[0].appl 	meanClusterHeadUtility 	4.2236542850402
scalar RSUExampleScenario.node[0].appl 	NumberofCH 	0.21621621621622
scalar RSUExampleScenario.node[0].appl 	NumberofON 	0.21621621621622
scalar RSUExampleScenario.node[0].appl 	NumberofFN 	0.56756756756757
scalar RSUExampleScenario.node[0].veinsmobility 	startTime 	0.1
scalar RSUExampleScenario.node[0].veinsmobility 	totalTime 	449.9
scalar RSUExampleScenario.node[0].veinsmobility 	stopTime 	450
scalar RSUExampleScenario.node[0].veinsmobility 	minSpeed 	0
scalar RSUExampleScenario.node[0].veinsmobility 	maxSpeed 	13.999982527231
scalar RSUExampleScenario.node[0].veinsmobility 	totalDistance 	3132.7957602382
scalar RSUExampleScenario.node[0].veinsmobility 	totalCO2Emission 	836.45576640559
scalar RSUExampleScenario.node[1].appl 	meanClusterNodes 	1.4
scalar RSUExampleScenario.node[1].appl 	meanClusterHeadUtility 	3.4789475352413
scalar RSUExampleScenario.node[1].appl 	NumberofCH 	0.27027027027027
scalar RSUExampleScenario.node[1].appl 	NumberofON 	0.62162162162162
scalar RSUExampleScenario.node[1].appl 	NumberofFN 	0.10810810810811
scalar RSUExampleScenario.node[1].veinsmobility 	startTime 	2.5
scalar RSUExampleScenario.node[1].veinsmobility 	totalTime 	447.5
scalar RSUExampleScenario.node[1].veinsmobility 	stopTime 	450
scalar RSUExampleScenario.node[1].veinsmobility 	minSpeed 	0
scalar RSUExampleScenario.node[1].veinsmobility 	maxSpeed 	13.99984373427
scalar RSUExampleScenario.node[1].veinsmobility 	totalDistance 	3083.9626472179
scalar RSUExampleScenario.node[1].veinsmobility 	totalCO2Emission 	829.24325074092
scalar RSUExampleScenario.node[10].appl 	meanClusterNodes 	2.875
scalar RSUExampleScenario.node[10].appl 	meanClusterHeadUtility 	4.542540703947
scalar RSUExampleScenario.node[10].appl 	NumberofCH 	0.21621621621622
scalar RSUExampleScenario.node[10].appl 	NumberofON 	0.54054054054054
scalar RSUExampleScenario.node[10].appl 	NumberofFN 	0.24324324324324
scalar RSUExampleScenario.node[10].veinsmobility 	startTime 	24.2
scalar RSUExampleScenario.node[10].veinsmobility 	totalTime 	425.8
scalar RSUExampleScenario.node[10].veinsmobility 	stopTime 	450
scalar RSUExampleScenario.node[10].veinsmobility 	minSpeed 	0
scalar RSUExampleScenario.node[10].veinsmobility 	maxSpeed 	13.999969002225
scalar RSUExampleScenario.node[10].veinsmobility 	totalDistance 	2789.385020849
scalar RSUExampleScenario.node[10].veinsmobility 	totalCO2Emission 	758.94191484341
scalar RSUExampleScenario.node[11].appl 	meanClusterNodes 	3.2222222222222
scalar RSUExampleScenario.node[11].appl 	meanClusterHeadUtility 	3.9953761668094
scalar RSUExampleScenario.node[11].appl 	NumberofCH 	0.24324324324324
scalar RSUExampleScenario.node[11].appl 	NumberofON 	0.45945945945946
scalar RSUExampleScenario.node[11].appl 	NumberofFN 	0.2972972972973
scalar RSUExampleScenario.node[11].veinsmobility 	startTime 	26.6
scalar RSUExampleScenario.node[11].veinsmobility 	totalTime 	423.4
scalar RSUExampleScenario.node[11].veinsmobility 	stopTime 	450
scalar RSUExampleScenario.node[11].veinsmobility 	minSpeed 	0
scalar RSUExampleScenario.node[11].veinsmobility 	maxSpeed 	13.999951128436
scalar RSUExampleScenario.node[11].veinsmobility 	totalDistance 	2755.20086319
scalar RSUExampleScenario.node[11].veinsmobility 	totalCO2Emission 	750.50959243384
scalar RSUExampleScenario.node[12].appl 	meanClusterNodes 	4
scalar RSUExampleScenario.node[12].appl 	meanClusterHeadUtility 	4.2945376026832
scalar RSUExampleScenario.node[12].appl 	NumberofCH 	0.21621621621622
scalar RSUExampleScenario.node[12].appl 	NumberofON 	0.54054054054054
scalar RSUExampleScenario.node[12].appl 	NumberofFN 	0.24324324324324
scalar RSUExampleScenario.node[12].veinsmobility 	startTime 	29
scalar RSUExampleScenario.node[12].veinsmobility 	totalTime 	421
scalar RSUExampleScenario.node[12].veinsmobility 	stopTime 	450
scalar RSUExampleScenario.node[12].veinsmobility 	minSpeed 	0
scalar RSUExampleScenario.node[12].veinsmobility 	maxSpeed 	13.999924067708
scalar RSUExampleScenario.node[12].veinsmobility 	totalDistance 	2717.2608641386
scalar RSUExampleScenario.node[12].veinsmobility 	totalCO2Emission 	749.96943793027
scalar RSUExampleScenario.node[13].appl 	meanClusterNodes 	2.5555555555556
scalar RSUExampleScenario.node[13].appl 	meanClusterHeadUtility 	3.5897245871902
scalar RSUExampleScenario.node[13].appl 	NumberofCH 	0.24324324324324
scalar RSUExampleScenario.node[13].appl 	NumberofON 	0.40540540540541
scalar RSUExampleScenario.node[13].appl 	NumberofFN 	0.35135135135135
scalar RSUExampleScenario.node[13].veinsmobility 	startTime 	31.4
scalar RSUExampleScenario.node[13].veinsmobility 	totalTime 	418.6
scalar RSUExampleScenario.node[13].veinsmobility 	stopTime 	450
scalar RSUExampleScenario.node[13].veinsmobility 	minSpeed 	0
scalar RSUExampleScenario.node[13].veinsmobility 	maxSpeed 	13.99984209992
scalar RSUExampleScenario.node[13].veinsmobility 	totalDistance 	2681.370113016
scalar RSUExampleScenario.node[13].veinsmobility 	totalCO2Emission 	737.52201145371
scalar RSUExampleScenario.node[14].appl 	meanClusterNodes 	2.1666666666667
scalar RSUExampleScenario.node[14].appl 	meanClusterHeadUtility 	6.8707476990489
scalar RSUExampleScenario.node[14].appl 	NumberofCH 	0.16216216216216
scalar RSUExampleScenario.node[14].appl 	NumberofON 	0.81081081081081
scalar RSUExampleScenario.node[14].appl 	NumberofFN 	0.027027027027027
scalar RSUExampleScenario.node[14].veinsmobility 	startTime 	33.8
scalar RSUExampleScenario.node[14].veinsmobility 	totalTime 	416.2
scalar RSUExampleScenario.node[14].veinsmobility 	stopTime 	450
scalar RSUExampleScenario.node[14].veinsmobility 	minSpeed 	0
scalar RSUExampleScenario.node[14].veinsmobility 	maxSpeed 	13.999935550836
scalar RSUExampleScenario.node[14].veinsmobility 	totalDistance 	2645.9491121678
scalar RSUExampleScenario.node[14].veinsmobility 	totalCO2Emission 	730.67541691743
scalar RSUExampleScenario.node[15].appl 	meanClusterNodes 	1.5
scalar RSUExampleScenario.node[15].appl 	meanClusterHeadUtility 	5.5036026648826
scalar RSUExampleScenario.node[15].appl 	NumberofCH 	0.16216216216216
scalar RSUExampleScenario.node[15].appl 	NumberofON 	0.78378378378378
scalar RSUExampleScenario.node[15].appl 	NumberofFN 	0.054054054054054
scalar RSUExampleScenario.node[15].veinsmobility 	startTime 	36.2
scalar RSUExampleScenario.node[15].veinsmobility 	totalTime 	413.8
scalar RSUExampleScenario.node[15].veinsmobility 	stopTime 	450
scalar RSUExampleScenario.node[15].veinsmobility 	minSpeed 	0
scalar RSUExampleScenario.node[15].veinsmobility 	maxSpeed 	13.999980601976
scalar RSUExampleScenario.node[15].veinsmobility 	totalDistance 	2616.6762611864
scalar RSUExampleScenario.node[15].veinsmobility 	totalCO2Emission 	731.06839557852
scalar RSUExampleScenario.node[16].appl 	meanClusterNodes 	2.125
scalar RSUExampleScenario.node[16].appl 	meanClusterHeadUtility 	3.9062402341821
scalar RSUExampleScenario.node[16].appl 	NumberofCH 	0.21621621621622
scalar RSUExampleScenario.node[16].appl 	NumberofON 	0.64864864864865
scalar RSUExampleScenario.node[16].appl 	NumberofFN 	0.13513513513514
scalar RSUExampleScenario.node[16].veinsmobility 	startTime 	38.6
scalar RSUExampleScenario.node[16].veinsmobility 	totalTime 	411.4
scalar RSUExampleScenario.node[16].veinsmobility 	stopTime 	450
scalar RSUExampleScenario.node[16].veinsmobility 	minSpeed 	0
scalar RSUExampleScenario.node[16].veinsmobility 	maxSpeed 	13.999975508691
scalar RSUExampleScenario.node[16].veinsmobility 	totalDistance 	2577.5581667375
scalar RSUExampleScenario.node[16].veinsmobility 	totalCO2Emission 	722.57937003386
scalar RSUExampleScenario.node[17].appl 	meanClusterNodes 	3.5
scalar RSUExampleScenario.node[17].appl 	meanClusterHeadUtility 	4.3337835828423
scalar RSUExampleScenario.node[17].appl 	NumberofCH 	0.21621621621622
scalar RSUExampleScenario.node[17].appl 	NumberofON 	0.37837837837838
scalar RSUExampleScenario.node[17].appl 	NumberofFN 	0.40540540540541
scalar RSUExampleScenario.node[17].veinsmobility 	startTime 	41
scalar RSUExampleScenario.node[17].veinsmobility 	totalTime 	409
scalar RSUExampleScenario.node[17].veinsmobility 	stopTime 	450
scalar RSUExampleScenario.node[17].veinsmobility 	minSpeed 	0
scalar RSUExampleScenario.node[17].veinsmobility 	maxSpeed 	13.999930144944
scalar RSUExampleScenario.node[17].veinsmobility 	totalDistance 	2543.4823196709
scalar RSUExampleScenario.node[17].veinsmobility 	totalCO2Emission 	717.31427097777
scalar RSUExampleScenario.node[18].appl 	meanClusterNodes 	1.1666666666667
scalar RSUExampleScenario.node[18].appl 	meanClusterHeadUtility 	5.0565861142317
scalar RSUExampleScenario.node[18].appl 	NumberofCH 	0.16216216216216
scalar RSUExampleScenario.node[18].appl 	NumberofON 	0.7027027027027
scalar RSUExampleScenario.node[18].appl 	NumberofFN 	0.13513513513514
scalar RSUExampleScenario.node[18].veinsmobility 	startTime 	43.4
scalar RSUExampleScenario.node[18].veinsmobility 	totalTime 	406.6
scalar RSUExampleScenario.node[18].veinsmobility 	stopTime 	450
scalar RSUExampleScenario.node[18].veinsmobility 	minSpeed 	0
scalar RSUExampleScenario.node[18].veinsmobility 	maxSpeed 	13.99997922678
scalar RSUExampleScenario.node[18].veinsmobility 	totalDistance 	2505.9588093615
scalar RSUExampleScenario.node[18].veinsmobility 	totalCO2Emission 	714.74497022065
scalar RSUExampleScenario.node[19].appl 	meanClusterNodes 	2.3333333333333
scalar RSUExampleScenario.node[19].appl 	meanClusterHeadUtility 	5.8953839780018
scalar RSUExampleScenario.node[19].appl 	NumberofCH 	0.16216216216216
scalar RSUExampleScenario.node[19].appl 	NumberofON 	0.35135135135135
scalar RSUExampleScenario.node[19].appl 	NumberofFN 	0.48648648648649
scalar RSUExampleScenario.node[19].veinsmobility 	startTime 	45.8
scalar RSUExampleScenario.node[19].veinsmobility 	totalTime 	404.2
scalar RSUExampleScenario.node[19].veinsmobility 	stopTime 	450
scalar RSUExampleScenario.node[19].veinsmobility 	minSpeed 	0
scalar RSUExampleScenario.node[19].veinsmobility 	maxSpeed 	13.99997054223
scalar RSUExampleScenario.node[19].veinsmobility 	totalDistance 	2475.3036152849
scalar RSUExampleScenario.node[19].veinsmobility 	totalCO2Emission 	704.02169005929
scalar RSUExampleScenario.node[2].appl 	meanClusterNodes 	0
scalar RSUExampleScenario.node[2].appl 	meanClusterHeadUtility 	0
scalar RSUExampleScenario.node[2].appl 	NumberofCH 	0.16216216216216
scalar RSUExampleScenario.node[2].appl 	NumberofON 	0.43243243243243
scalar RSUExampleScenario.node[2].appl 	NumberofFN 	0.40540540540541
scalar RSUExampleScenario.node[2].veinsmobility 	startTime 	4.9
scalar RSUExampleScenario.node[2].veinsmobility 	totalTime 	445.1
scalar RSUExampleScenario.node[2].veinsmobility 	stopTime 	450
scalar RSUExampleScenario.node[2].veinsmobility 	minSpeed 	0
scalar RSUExampleScenario.node[2].veinsmobility 	maxSpeed 	13.999954722698
scalar RSUExampleScenario.node[2].veinsmobility 	totalDistance 	3038.7541854354
scalar RSUExampleScenario.node[2].veinsmobility 	totalCO2Emission 	822.58045198759
scalar RSUExampleScenario.node[20].appl 	meanClusterNodes 	2.2857142857143
scalar RSUExampleScenario.node[20].appl 	meanClusterHeadUtility 	4.5193146396145
scalar RSUExampleScenario.node[20].appl 	NumberofCH 	0.18918918918919
scalar RSUExampleScenario.node[20].appl 	NumberofON 	0.54054054054054
scalar RSUExampleScenario.node[20].appl 	NumberofFN 	0.27027027027027
scalar RSUExampleScenario.node[20].veinsmobility 	startTime 	48.3
scalar RSUExampleScenario.node[20].veinsmobility 	totalTime 	401.7
scalar RSUExampleScenario.node[20].veinsmobility 	stopTime 	450
scalar RSUExampleScenario.node[20].veinsmobility 	minSpeed 	0
scalar RSUExampleScenario.node[20].veinsmobility 	maxSpeed 	13.999846208133
scalar RSUExampleScenario.node[20].veinsmobility 	totalDistance 	2436.2699830759
scalar RSUExampleScenario.node[20].veinsmobility 	totalCO2Emission 	703.15654601738
scalar RSUExampleScenario.node[21].appl 	meanClusterNodes 	3.5
scalar RSUExampleScenario.node[21].appl 	meanClusterHeadUtility 	5.7295509532027
scalar RSUExampleScenario.node[21].appl 	NumberofCH 	0.16216216216216
scalar RSUExampleScenario.node[21].appl 	NumberofON 	0.75675675675676
scalar RSUExampleScenario.node[21].appl 	NumberofFN 	0.081081081081081
scalar RSUExampleScenario.node[21].veinsmobility 	startTime 	50.7
scalar RSUExampleScenario.node[21].veinsmobility 	totalTime 	399.3
scalar RSUExampleScenario.node[21].veinsmobility 	stopTime 	450
scalar RSUExampleScenario.node[21].veinsmobility 	minSpeed 	0
scalar RSUExampleScenario.node[21].veinsmobility 	maxSpeed 	13.999818121805
scalar RSUExampleScenario.node[21].veinsmobility 	totalDistance 	2408.3084549001
scalar RSUExampleScenario.node[21].veinsmobility 	totalCO2Emission 	695.98937910449
scalar RSUExampleScenario.node[22].appl 	meanClusterNodes 	4.25
scalar RSUExampleScenario.node[22].appl 	meanClusterHeadUtility 	3.9764199777601
scalar RSUExampleScenario.node[22].appl 	NumberofCH 	0.21621621621622
scalar RSUExampleScenario.node[22].appl 	NumberofON 	0.32432432432432
scalar RSUExampleScenario.node[22].appl 	NumberofFN 	0.45945945945946
scalar RSUExampleScenario.node[22].veinsmobility 	startTime 	53.1
scalar RSUExampleScenario.node[22].veinsmobility 	totalTime 	396.9
scalar RSUExampleScenario.node[22].veinsmobility 	stopTime 	450
scalar RSUExampleScenario.node[22].veinsmobility 	minSpeed 	0
scalar RSUExampleScenario.node[22].veinsmobility 	maxSpeed 	13.999976532627
scalar RSUExampleScenario.node[22].veinsmobility 	totalDistance 	2367.6852814592
scalar RSUExampleScenario.node[22].veinsmobility 	totalCO2Emission 	689.64511625169
scalar RSUExampleScenario.node[23].appl 	meanClusterNodes 	3.25
scalar RSUExampleScenario.node[23].appl 	meanClusterHeadUtility 	5.1846129430149
scalar RSUExampleScenario.node[23].appl 	NumberofCH 	0.21621621621622
scalar RSUExampleScenario.node[23].appl 	NumberofON 	0.59459459459459
scalar RSUExampleScenario.node[23].appl 	NumberofFN 	0.18918918918919
scalar RSUExampleScenario.node[23].veinsmobility 	startTime 	55.5
scalar RSUExampleScenario.node[23].veinsmobility 	totalTime 	394.5
scalar RSUExampleScenario.node[23].veinsmobility 	stopTime 	450
scalar RSUExampleScenario.node[23].veinsmobility 	minSpeed 	0
scalar RSUExampleScenario.node[23].veinsmobility 	maxSpeed 	13.999900421149
scalar RSUExampleScenario.node[23].veinsmobility 	totalDistance 	2340.4322166108
scalar RSUExampleScenario.node[23].veinsmobility 	totalCO2Emission 	682.59820813503
scalar RSUExampleScenario.node[24].appl 	meanClusterNodes 	2.3333333333333
scalar RSUExampleScenario.node[24].appl 	meanClusterHeadUtility 	4.1720638156698
scalar RSUExampleScenario.node[24].appl 	NumberofCH 	0.24324324324324
scalar RSUExampleScenario.node[24].appl 	NumberofON 	0.67567567567568
scalar RSUExampleScenario.node[24].appl 	NumberofFN 	0.081081081081081
scalar RSUExampleScenario.node[24].veinsmobility 	startTime 	57.9
scalar RSUExampleScenario.node[24].veinsmobility 	totalTime 	392.1
scalar RSUExampleScenario.node[24].veinsmobility 	stopTime 	450
scalar RSUExampleScenario.node[24].veinsmobility 	minSpeed 	0
scalar RSUExampleScenario.node[24].veinsmobility 	maxSpeed 	13.999994941766
scalar RSUExampleScenario.node[24].veinsmobility 	totalDistance 	2302.4074503149
scalar RSUExampleScenario.node[24].veinsmobility 	totalCO2Emission 	677.28767783294
scalar RSUExampleScenario.node[25].appl 	meanClusterNodes 	3.5
scalar RSUExampleScenario.node[25].appl 	meanClusterHeadUtility 	3.8090865331241
scalar RSUExampleScenario.node[25].appl 	NumberofCH 	0.21621621621622
scalar RSUExampleScenario.node[25].appl 	NumberofON 	0.56756756756757
scalar RSUExampleScenario.node[25].appl 	NumberofFN 	0.21621621621622
scalar RSUExampleScenario.node[25].veinsmobility 	startTime 	60.3
scalar RSUExampleScenario.node[25].veinsmobility 	totalTime 	389.7
scalar RSUExampleScenario.node[25].veinsmobility 	stopTime 	450
scalar RSUExampleScenario.node[25].veinsmobility 	minSpeed 	0
scalar RSUExampleScenario.node[25].veinsmobility 	maxSpeed 	13.999995336854
scalar RSUExampleScenario.node[25].veinsmobility 	totalDistance 	2273.892106797
scalar RSUExampleScenario.node[25].veinsmobility 	totalCO2Emission 	669.97272617036
scalar RSUExampleScenario.node[26].appl 	meanClusterNodes 	2.25
scalar RSUExampleScenario.node[26].appl 	meanClusterHeadUtility 	3.9256150444968
scalar RSUExampleScenario.node[26].appl 	NumberofCH 	0.21621621621622
scalar RSUExampleScenario.node[26].appl 	NumberofON 	0.72972972972973
scalar RSUExampleScenario.node[26].appl 	NumberofFN 	0.054054054054054
scalar RSUExampleScenario.node[26].veinsmobility 	startTime 	62.7
scalar RSUExampleScenario.node[26].veinsmobility 	totalTime 	387.3
scalar RSUExampleScenario.node[26].veinsmobility 	stopTime 	450
scalar RSUExampleScenario.node[26].veinsmobility 	minSpeed 	0
scalar RSUExampleScenario.node[26].veinsmobility 	maxSpeed 	13.999955890649
scalar RSUExampleScenario.node[26].veinsmobility 	totalDistance 	2233.7415075826
scalar RSUExampleScenario.node[26].veinsmobility 	totalCO2Emission 	666.81505199983
scalar RSUExampleScenario.node[27].appl 	meanClusterNodes 	3.25
scalar RSUExampleScenario.node[27].appl 	meanClusterHeadUtility 	3.8843574381887
scalar RSUExampleScenario.node[27].appl 	NumberofCH 	0.21621621621622
scalar RSUExampleScenario.node[27].appl 	NumberofON 	0.72972972972973
scalar RSUExampleScenario.node[27].appl 	NumberofFN 	0.054054054054054
scalar RSUExampleScenario.node[27].veinsmobility 	startTime 	65.1
scalar RSUExampleScenario.node[27].veinsmobility 	totalTime 	384.9
scalar RSUExampleScenario.node[27].veinsmobility 	stopTime 	450
scalar RSUExampleScenario.node[27].veinsmobility 	minSpeed 	0
scalar RSUExampleScenario.node[27].veinsmobility 	maxSpeed 	13.999953587316
scalar RSUExampleScenario.node[27].veinsmobility 	totalDistance 	2204.3711774835
scalar RSUExampleScenario.node[27].veinsmobility 	totalCO2Emission 	662.68170033484
scalar RSUExampleScenario.node[28].appl 	meanClusterNodes 	1.5
scalar RSUExampleScenario.node[28].appl 	meanClusterHeadUtility 	5.7019272501562
scalar RSUExampleScenario.node[28].appl 	NumberofCH 	0.16216216216216
scalar RSUExampleScenario.node[28].appl 	NumberofON 	0.45945945945946
scalar RSUExampleScenario.node[28].appl 	NumberofFN 	0.37837837837838
scalar RSUExampleScenario.node[28].veinsmobility 	startTime 	67.5
scalar RSUExampleScenario.node[28].veinsmobility 	totalTime 	382.5
scalar RSUExampleScenario.node[28].veinsmobility 	stopTime 	450
scalar RSUExampleScenario.node[28].veinsmobility 	minSpeed 	0
scalar RSUExampleScenario.node[28].veinsmobility 	maxSpeed 	13.999892222642
scalar RSUExampleScenario.node[28].veinsmobility 	totalDistance 	2167.1358452838
scalar RSUExampleScenario.node[28].veinsmobility 	totalCO2Emission 	655.48463551606
scalar RSUExampleScenario.node[29].appl 	meanClusterNodes 	4.1666666666667
scalar RSUExampleScenario.node[29].appl 	meanClusterHeadUtility 	5.7876054389199
scalar RSUExampleScenario.node[29].appl 	NumberofCH 	0.16216216216216
scalar RSUExampleScenario.node[29].appl 	NumberofON 	0.75675675675676
scalar RSUExampleScenario.node[29].appl 	NumberofFN 	0.081081081081081
scalar RSUExampleScenario.node[29].veinsmobility 	startTime 	69.9
scalar RSUExampleScenario.node[29].veinsmobility 	totalTime 	380.1
scalar RSUExampleScenario.node[29].veinsmobility 	stopTime 	450
scalar RSUExampleScenario.node[29].veinsmobility 	minSpeed 	0
scalar RSUExampleScenario.node[29].veinsmobility 	maxSpeed 	13.999932904537
scalar RSUExampleScenario.node[29].veinsmobility 	totalDistance 	2134.6443460622
scalar RSUExampleScenario.node[29].veinsmobility 	totalCO2Emission 	649.91139051529
scalar RSUExampleScenario.node[3].appl 	meanClusterNodes 	1.4285714285714
scalar RSUExampleScenario.node[3].appl 	meanClusterHeadUtility 	5.0184525090684
scalar RSUExampleScenario.node[3].appl 	NumberofCH 	0.18918918918919
scalar RSUExampleScenario.node[3].appl 	NumberofON 	0.56756756756757
scalar RSUExampleScenario.node[3].appl 	NumberofFN 	0.24324324324324
scalar RSUExampleScenario.node[3].veinsmobility 	startTime 	7.3
scalar RSUExampleScenario.node[3].veinsmobility 	totalTime 	442.7
scalar RSUExampleScenario.node[3].veinsmobility 	stopTime 	450
scalar RSUExampleScenario.node[3].veinsmobility 	minSpeed 	0
scalar RSUExampleScenario.node[3].veinsmobility 	maxSpeed 	13.999829819775
scalar RSUExampleScenario.node[3].veinsmobility 	totalDistance 	2999.4050974954
scalar RSUExampleScenario.node[3].veinsmobility 	totalCO2Emission 	814.06720922348
scalar RSUExampleScenario.node[30].appl 	meanClusterNodes 	5
scalar RSUExampleScenario.node[30].appl 	meanClusterHeadUtility 	5.3899804191666
scalar RSUExampleScenario.node[30].appl 	NumberofCH 	0.16216216216216
scalar RSUExampleScenario.node[30].appl 	NumberofON 	0.72972972972973
scalar RSUExampleScenario.node[30].appl 	NumberofFN 	0.10810810810811
scalar RSUExampleScenario.node[30].veinsmobility 	startTime 	72.4
scalar RSUExampleScenario.node[30].veinsmobility 	totalTime 	377.6
scalar RSUExampleScenario.node[30].veinsmobility 	stopTime 	450
scalar RSUExampleScenario.node[30].veinsmobility 	minSpeed 	0
scalar RSUExampleScenario.node[30].veinsmobility 	maxSpeed 	13.999920315417
scalar RSUExampleScenario.node[30].veinsmobility 	totalDistance 	2098.4121822658
scalar RSUExampleScenario.node[30].veinsmobility 	totalCO2Emission 	644.11185502334
scalar RSUExampleScenario.node[31].appl 	meanClusterNodes 	1.8333333333333
scalar RSUExampleScenario.node[31].appl 	meanClusterHeadUtility 	5.7963916769794
scalar RSUExampleScenario.node[31].appl 	NumberofCH 	0.16216216216216
scalar RSUExampleScenario.node[31].appl 	NumberofON 	0.81081081081081
scalar RSUExampleScenario.node[31].appl 	NumberofFN 	0.027027027027027
scalar RSUExampleScenario.node[31].veinsmobility 	startTime 	74.8
scalar RSUExampleScenario.node[31].veinsmobility 	totalTime 	375.2
scalar RSUExampleScenario.node[31].veinsmobility 	stopTime 	450
scalar RSUExampleScenario.node[31].veinsmobility 	minSpeed 	0
scalar RSUExampleScenario.node[31].veinsmobility 	maxSpeed 	13.999972056113
scalar RSUExampleScenario.node[31].veinsmobility 	totalDistance 	2068.2983784062
scalar RSUExampleScenario.node[31].veinsmobility 	totalCO2Emission 	636.84057896961
scalar RSUExampleScenario.node[32].appl 	meanClusterNodes 	4.6666666666667
scalar RSUExampleScenario.node[32].appl 	meanClusterHeadUtility 	5.755554391091
scalar RSUExampleScenario.node[32].appl 	NumberofCH 	0.16216216216216
scalar RSUExampleScenario.node[32].appl 	NumberofON 	0.72972972972973
scalar RSUExampleScenario.node[32].appl 	NumberofFN 	0.10810810810811
scalar RSUExampleScenario.node[32].veinsmobility 	startTime 	77.2
scalar RSUExampleScenario.node[32].veinsmobility 	totalTime 	372.8
scalar RSUExampleScenario.node[32].veinsmobility 	stopTime 	450
scalar RSUExampleScenario.node[32].veinsmobility 	minSpeed 	0
scalar RSUExampleScenario.node[32].veinsmobility 	maxSpeed 	13.999962427474
scalar RSUExampleScenario.node[32].veinsmobility 	totalDistance 	2031.8171144375
scalar RSUExampleScenario.node[32].veinsmobility 	totalCO2Emission 	632.54059464305
scalar RSUExampleScenario.node[33].appl 	meanClusterNodes 	3.1666666666667
scalar RSUExampleScenario.node[33].appl 	meanClusterHeadUtility 	5.528610960982
scalar RSUExampleScenario.node[33].appl 	NumberofCH 	0.16216216216216
scalar RSUExampleScenario.node[33].appl 	NumberofON 	0.81081081081081
scalar RSUExampleScenario.node[33].appl 	NumberofFN 	0.027027027027027
scalar RSUExampleScenario.node[33].veinsmobility 	startTime 	79.6
scalar RSUExampleScenario.node[33].veinsmobility 	totalTime 	370.4
scalar RSUExampleScenario.node[33].veinsmobility 	stopTime 	450
scalar RSUExampleScenario.node[33].veinsmobility 	minSpeed 	0
scalar RSUExampleScenario.node[33].veinsmobility 	maxSpeed 	13.999873779512
scalar RSUExampleScenario.node[33].veinsmobility 	totalDistance 	1997.424257281
scalar RSUExampleScenario.node[33].veinsmobility 	totalCO2Emission 	625.73571944723
scalar RSUExampleScenario.node[34].appl 	meanClusterNodes 	3.3333333333333
scalar RSUExampleScenario.node[34].appl 	meanClusterHeadUtility 	5.7997409496273
scalar RSUExampleScenario.node[34].appl 	NumberofCH 	0.16216216216216
scalar RSUExampleScenario.node[34].appl 	NumberofON 	0.62162162162162
scalar RSUExampleScenario.node[34].appl 	NumberofFN 	0.21621621621622
scalar RSUExampleScenario.node[34].veinsmobility 	startTime 	82
scalar RSUExampleScenario.node[34].veinsmobility 	totalTime 	368
scalar RSUExampleScenario.node[34].veinsmobility 	stopTime 	450
scalar RSUExampleScenario.node[34].veinsmobility 	minSpeed 	0
scalar RSUExampleScenario.node[34].veinsmobility 	maxSpeed 	13.999918567562
scalar RSUExampleScenario.node[34].veinsmobility 	totalDistance 	1962.3245396874
scalar RSUExampleScenario.node[34].veinsmobility 	totalCO2Emission 	620.0867648824
scalar RSUExampleScenario.node[35].appl 	meanClusterNodes 	2.75
scalar RSUExampleScenario.node[35].appl 	meanClusterHeadUtility 	3.8301992359686
scalar RSUExampleScenario.node[35].appl 	NumberofCH 	0.21621621621622
scalar RSUExampleScenario.node[35].appl 	NumberofON 	0.7027027027027
scalar RSUExampleScenario.node[35].appl 	NumberofFN 	0.081081081081081
scalar RSUExampleScenario.node[35].veinsmobility 	startTime 	84.4
scalar RSUExampleScenario.node[35].veinsmobility 	totalTime 	365.6
scalar RSUExampleScenario.node[35].veinsmobility 	stopTime 	450
scalar RSUExampleScenario.node[35].veinsmobility 	minSpeed 	0
scalar RSUExampleScenario.node[35].veinsmobility 	maxSpeed 	13.999554638341
scalar RSUExampleScenario.node[35].veinsmobility 	totalDistance 	1930.7101746358
scalar RSUExampleScenario.node[35].veinsmobility 	totalCO2Emission 	613.10432586716
scalar RSUExampleScenario.node[36].appl 	meanClusterNodes 	4.5714285714286
scalar RSUExampleScenario.node[36].appl 	meanClusterHeadUtility 	4.9877302802509
scalar RSUExampleScenario.node[36].appl 	NumberofCH 	0.18918918918919
scalar RSUExampleScenario.node[36].appl 	NumberofON 	0.72972972972973
scalar RSUExampleScenario.node[36].appl 	NumberofFN 	0.081081081081081
scalar RSUExampleScenario.node[36].veinsmobility 	startTime 	86.8
scalar RSUExampleScenario.node[36].veinsmobility 	totalTime 	363.2
scalar RSUExampleScenario.node[36].veinsmobility 	stopTime 	450
scalar RSUExampleScenario.node[36].veinsmobility 	minSpeed 	0
scalar RSUExampleScenario.node[36].veinsmobility 	maxSpeed 	13.999833086599
scalar RSUExampleScenario.node[36].veinsmobility 	totalDistance 	1895.8470231323
scalar RSUExampleScenario.node[36].veinsmobility 	totalCO2Emission 	608.32686726515
scalar RSUExampleScenario.node[37].appl 	meanClusterNodes 	2.4285714285714
scalar RSUExampleScenario.node[37].appl 	meanClusterHeadUtility 	4.7927286874997
scalar RSUExampleScenario.node[37].appl 	NumberofCH 	0.18918918918919
scalar RSUExampleScenario.node[37].appl 	NumberofON 	0.81081081081081
scalar RSUExampleScenario.node[37].appl 	NumberofFN 	0
scalar RSUExampleScenario.node[37].veinsmobility 	startTime 	89.2
scalar RSUExampleScenario.node[37].veinsmobility 	totalTime 	360.8
scalar RSUExampleScenario.node[37].veinsmobility 	stopTime 	450
scalar RSUExampleScenario.node[37].veinsmobility 	minSpeed 	0
scalar RSUExampleScenario.node[37].veinsmobility 	maxSpeed 	13.999972758149
scalar RSUExampleScenario.node[37].veinsmobility 	totalDistance 	1862.4062019984
scalar RSUExampleScenario.node[37].veinsmobility 	totalCO2Emission 	602.95996962203
scalar RSUExampleScenario.node[38].appl 	meanClusterNodes 	3.4285714285714
scalar RSUExampleScenario.node[38].appl 	meanClusterHeadUtility 	5.3215484049233
scalar RSUExampleScenario.node[38].appl 	NumberofCH 	0.18918918918919
scalar RSUExampleScenario.node[38].appl 	NumberofON 	0.67567567567568
scalar RSUExampleScenario.node[38].appl 	NumberofFN 	0.13513513513514
scalar RSUExampleScenario.node[38].veinsmobility 	startTime 	91.6
scalar RSUExampleScenario.node[38].veinsmobility 	totalTime 	358.4
scalar RSUExampleScenario.node[38].veinsmobility 	stopTime 	450
scalar RSUExampleScenario.node[38].veinsmobility 	minSpeed 	0
scalar RSUExampleScenario.node[38].veinsmobility 	maxSpeed 	13.999927338255
scalar RSUExampleScenario.node[38].veinsmobility 	totalDistance 	1829.4651032008
scalar RSUExampleScenario.node[38].veinsmobility 	totalCO2Emission 	598.05992750701
scalar RSUExampleScenario.node[39].appl 	meanClusterNodes 	3.5
scalar RSUExampleScenario.node[39].appl 	meanClusterHeadUtility 	3.4934920800061
scalar RSUExampleScenario.node[39].appl 	NumberofCH 	0.27027027027027
scalar RSUExampleScenario.node[39].appl 	NumberofON 	0.67567567567568
scalar RSUExampleScenario.node[39].appl 	NumberofFN 	0.054054054054054
scalar RSUExampleScenario.node[39].veinsmobility 	startTime 	94
scalar RSUExampleScenario.node[39].veinsmobility 	totalTime 	356
scalar RSUExampleScenario.node[39].veinsmobility 	stopTime 	450
scalar RSUExampleScenario.node[39].veinsmobility 	minSpeed 	0
scalar RSUExampleScenario.node[39].veinsmobility 	maxSpeed 	13.999742059512
scalar RSUExampleScenario.node[39].veinsmobility 	totalDistance 	1795.2862118548
scalar RSUExampleScenario.node[39].veinsmobility 	totalCO2Emission 	592.13759843318
scalar RSUExampleScenario.node[4].appl 	meanClusterNodes 	2.25
scalar RSUExampleScenario.node[4].appl 	meanClusterHeadUtility 	4.5586221911149
scalar RSUExampleScenario.node[4].appl 	NumberofCH 	0.21621621621622
scalar RSUExampleScenario.node[4].appl 	NumberofON 	0.64864864864865
scalar RSUExampleScenario.node[4].appl 	NumberofFN 	0.13513513513514
scalar RSUExampleScenario.node[4].veinsmobility 	startTime 	9.7
scalar RSUExampleScenario.node[4].veinsmobility 	totalTime 	440.3
scalar RSUExampleScenario.node[4].veinsmobility 	stopTime 	450
scalar RSUExampleScenario.node[4].veinsmobility 	minSpeed 	0
scalar RSUExampleScenario.node[4].veinsmobility 	maxSpeed 	13.999985165026
scalar RSUExampleScenario.node[4].veinsmobility 	totalDistance 	2946.5003723369
scalar RSUExampleScenario.node[4].veinsmobility 	totalCO2Emission 	794.99824997823
scalar RSUExampleScenario.node[40].appl 	meanClusterNodes 	2.75
scalar RSUExampleScenario.node[40].appl 	meanClusterHeadUtility 	3.9553791518042
scalar RSUExampleScenario.node[40].appl 	NumberofCH 	0.21621621621622
scalar RSUExampleScenario.node[40].appl 	NumberofON 	0.78378378378378
scalar RSUExampleScenario.node[40].appl 	NumberofFN 	0
scalar RSUExampleScenario.node[40].veinsmobility 	startTime 	96.5
scalar RSUExampleScenario.node[40].veinsmobility 	totalTime 	353.5
scalar RSUExampleScenario.node[40].veinsmobility 	stopTime 	450
scalar RSUExampleScenario.node[40].veinsmobility 	minSpeed 	0
scalar RSUExampleScenario.node[40].veinsmobility 	maxSpeed 	13.999781887033
scalar RSUExampleScenario.node[40].veinsmobility 	totalDistance 	1763.9603062757
scalar RSUExampleScenario.node[40].veinsmobility 	totalCO2Emission 	585.98157919939
scalar RSUExampleScenario.node[41].appl 	meanClusterNodes 	2.2222222222222
scalar RSUExampleScenario.node[41].appl 	meanClusterHeadUtility 	3.4872272216633
scalar RSUExampleScenario.node[41].appl 	NumberofCH 	0.24324324324324
scalar RSUExampleScenario.node[41].appl 	NumberofON 	0.67567567567568
scalar RSUExampleScenario.node[41].appl 	NumberofFN 	0.081081081081081
scalar RSUExampleScenario.node[41].veinsmobility 	startTime 	98.9
scalar RSUExampleScenario.node[41].veinsmobility 	totalTime 	351.1
scalar RSUExampleScenario.node[41].veinsmobility 	stopTime 	450
scalar RSUExampleScenario.node[41].veinsmobility 	minSpeed 	0
scalar RSUExampleScenario.node[41].veinsmobility 	maxSpeed 	13.999760891525
scalar RSUExampleScenario.node[41].veinsmobility 	totalDistance 	1728.5860890001
scalar RSUExampleScenario.node[41].veinsmobility 	totalCO2Emission 	579.8011719569
scalar RSUExampleScenario.node[42].appl 	meanClusterNodes 	1.25
scalar RSUExampleScenario.node[42].appl 	meanClusterHeadUtility 	3.9524795076281
scalar RSUExampleScenario.node[42].appl 	NumberofCH 	0.21621621621622
scalar RSUExampleScenario.node[42].appl 	NumberofON 	0.78378378378378
scalar RSUExampleScenario.node[42].appl 	NumberofFN 	0
scalar RSUExampleScenario.node[42].veinsmobility 	startTime 	101.3
scalar RSUExampleScenario.node[42].veinsmobility 	totalTime 	348.7
scalar RSUExampleScenario.node[42].veinsmobility 	stopTime 	450
scalar RSUExampleScenario.node[42].veinsmobility 	minSpeed 	0
scalar RSUExampleScenario.node[42].veinsmobility 	maxSpeed 	13.999630529953
scalar RSUExampleScenario.node[42].veinsmobility 	totalDistance 	1695.2195377738
scalar RSUExampleScenario.node[42].veinsmobility 	totalCO2Emission 	573.54081632781
scalar RSUExampleScenario.node[43].appl 	meanClusterNodes 	3.3333333333333
scalar RSUExampleScenario.node[43].appl 	meanClusterHeadUtility 	5.7649044614662
scalar RSUExampleScenario.node[43].appl 	NumberofCH 	0.16216216216216
scalar RSUExampleScenario.node[43].appl 	NumberofON 	0.72972972972973
scalar RSUExampleScenario.node[43].appl 	NumberofFN 	0.10810810810811
scalar RSUExampleScenario.node[43].veinsmobility 	startTime 	103.7
scalar RSUExampleScenario.node[43].veinsmobility 	totalTime 	346.3
scalar RSUExampleScenario.node[43].veinsmobility 	stopTime 	450
scalar RSUExampleScenario.node[43].veinsmobility 	minSpeed 	0
scalar RSUExampleScenario.node[43].veinsmobility 	maxSpeed 	13.999892057076
scalar RSUExampleScenario.node[43].veinsmobility 	totalDistance 	1661.0622065011
scalar RSUExampleScenario.node[43].veinsmobility 	totalCO2Emission 	571.56035665466
scalar RSUExampleScenario.node[44].appl 	meanClusterNodes 	2.3333333333333
scalar RSUExampleScenario.node[44].appl 	meanClusterHeadUtility 	6.4906169196155
scalar RSUExampleScenario.node[44].appl 	NumberofCH 	0.16216216216216
scalar RSUExampleScenario.node[44].appl 	NumberofON 	0.7027027027027
scalar RSUExampleScenario.node[44].appl 	NumberofFN 	0.13513513513514
scalar RSUExampleScenario.node[44].veinsmobility 	startTime 	106.1
scalar RSUExampleScenario.node[44].veinsmobility 	totalTime 	343.9
scalar RSUExampleScenario.node[44].veinsmobility 	stopTime 	450
scalar RSUExampleScenario.node[44].veinsmobility 	minSpeed 	0
scalar RSUExampleScenario.node[44].veinsmobility 	maxSpeed 	13.999997707775
scalar RSUExampleScenario.node[44].veinsmobility 	totalDistance 	1626.7209649221
scalar RSUExampleScenario.node[44].veinsmobility 	totalCO2Emission 	563.56726983297
scalar RSUExampleScenario.node[45].appl 	meanClusterNodes 	4.25
scalar RSUExampleScenario.node[45].appl 	meanClusterHeadUtility 	4.0079726206858
scalar RSUExampleScenario.node[45].appl 	NumberofCH 	0.21621621621622
scalar RSUExampleScenario.node[45].appl 	NumberofON 	0.48648648648649
scalar RSUExampleScenario.node[45].appl 	NumberofFN 	0.2972972972973
scalar RSUExampleScenario.node[45].veinsmobility 	startTime 	108.5
scalar RSUExampleScenario.node[45].veinsmobility 	totalTime 	341.5
scalar RSUExampleScenario.node[45].veinsmobility 	stopTime 	450
scalar RSUExampleScenario.node[45].veinsmobility 	minSpeed 	0
scalar RSUExampleScenario.node[45].veinsmobility 	maxSpeed 	13.999880862189
scalar RSUExampleScenario.node[45].veinsmobility 	totalDistance 	1593.0507969928
scalar RSUExampleScenario.node[45].veinsmobility 	totalCO2Emission 	558.4007074916
scalar RSUExampleScenario.node[46].appl 	meanClusterNodes 	3.5
scalar RSUExampleScenario.node[46].appl 	meanClusterHeadUtility 	3.5171670992528
scalar RSUExampleScenario.node[46].appl 	NumberofCH 	0.27027027027027
scalar RSUExampleScenario.node[46].appl 	NumberofON 	0.56756756756757
scalar RSUExampleScenario.node[46].appl 	NumberofFN 	0.16216216216216
scalar RSUExampleScenario.node[46].veinsmobility 	startTime 	110.9
scalar RSUExampleScenario.node[46].veinsmobility 	totalTime 	339.1
scalar RSUExampleScenario.node[46].veinsmobility 	stopTime 	450
scalar RSUExampleScenario.node[46].veinsmobility 	minSpeed 	0
scalar RSUExampleScenario.node[46].veinsmobility 	maxSpeed 	13.999573159805
scalar RSUExampleScenario.node[46].veinsmobility 	totalDistance 	1560.5925251154
scalar RSUExampleScenario.node[46].veinsmobility 	totalCO2Emission 	552.51753551149
scalar RSUExampleScenario.node[47].appl 	meanClusterNodes 	3
scalar RSUExampleScenario.node[47].appl 	meanClusterHeadUtility 	5.77750969169
scalar RSUExampleScenario.node[47].appl 	NumberofCH 	0.16216216216216
scalar RSUExampleScenario.node[47].appl 	NumberofON 	0.7027027027027
scalar RSUExampleScenario.node[47].appl 	NumberofFN 	0.13513513513514
scalar RSUExampleScenario.node[47].veinsmobility 	startTime 	113.3
scalar RSUExampleScenario.node[47].veinsmobility 	totalTime 	336.7
scalar RSUExampleScenario.node[47].veinsmobility 	stopTime 	450
scalar RSUExampleScenario.node[47].veinsmobility 	minSpeed 	0
scalar RSUExampleScenario.node[47].veinsmobility 	maxSpeed 	13.999800549787
scalar RSUExampleScenario.node[47].veinsmobility 	totalDistance 	1526.9510399825
scalar RSUExampleScenario.node[47].veinsmobility 	totalCO2Emission 	549.62166923572
scalar RSUExampleScenario.node[48].appl 	meanClusterNodes 	2
scalar RSUExampleScenario.node[48].appl 	meanClusterHeadUtility 	4.2812315819224
scalar RSUExampleScenario.node[48].appl 	NumberofCH 	0.24324324324324
scalar RSUExampleScenario.node[48].appl 	NumberofON 	0.59459459459459
scalar RSUExampleScenario.node[48].appl 	NumberofFN 	0.16216216216216
scalar RSUExampleScenario.node[48].veinsmobility 	startTime 	115.7
scalar RSUExampleScenario.node[48].veinsmobility 	totalTime 	334.3
scalar RSUExampleScenario.node[48].veinsmobility 	stopTime 	450
scalar RSUExampleScenario.node[48].veinsmobility 	minSpeed 	0
scalar RSUExampleScenario.node[48].veinsmobility 	maxSpeed 	13.999993195031
scalar RSUExampleScenario.node[48].veinsmobility 	totalDistance 	1491.7075689354
scalar RSUExampleScenario.node[48].veinsmobility 	totalCO2Emission 	539.2734995483
scalar RSUExampleScenario.node[49].appl 	meanClusterNodes 	4.8571428571429
scalar RSUExampleScenario.node[49].appl 	meanClusterHeadUtility 	4.7335751298967
scalar RSUExampleScenario.node[49].appl 	NumberofCH 	0.18918918918919
scalar RSUExampleScenario.node[49].appl 	NumberofON 	0.7027027027027
scalar RSUExampleScenario.node[49].appl 	NumberofFN 	0.10810810810811
scalar RSUExampleScenario.node[49].veinsmobility 	startTime 	118.1
scalar RSUExampleScenario.node[49].veinsmobility 	totalTime 	331.9
scalar RSUExampleScenario.node[49].veinsmobility 	stopTime 	450
scalar RSUExampleScenario.node[49].veinsmobility 	minSpeed 	0
scalar RSUExampleScenario.node[49].veinsmobility 	maxSpeed 	13.999837999002
scalar RSUExampleScenario.node[49].veinsmobility 	totalDistance 	1458.8477634136
scalar RSUExampleScenario.node[49].veinsmobility 	totalCO2Emission 	534.59858808907
scalar RSUExampleScenario.node[5].appl 	meanClusterNodes 	2.375
scalar RSUExampleScenario.node[5].appl 	meanClusterHeadUtility 	4.4943614713428
scalar RSUExampleScenario.node[5].appl 	NumberofCH 	0.21621621621622
scalar RSUExampleScenario.node[5].appl 	NumberofON 	0.64864864864865
scalar RSUExampleScenario.node[5].appl 	NumberofFN 	0.13513513513514
scalar RSUExampleScenario.node[5].veinsmobility 	startTime 	12.1
scalar RSUExampleScenario.node[5].veinsmobility 	totalTime 	437.9
scalar RSUExampleScenario.node[5].veinsmobility 	stopTime 	450
scalar RSUExampleScenario.node[5].veinsmobility 	minSpeed 	0
scalar RSUExampleScenario.node[5].veinsmobility 	maxSpeed 	13.99992836104
scalar RSUExampleScenario.node[5].veinsmobility 	totalDistance 	2918.7986844679
scalar RSUExampleScenario.node[5].veinsmobility 	totalCO2Emission 	781.50504974735
scalar RSUExampleScenario.node[50].appl 	meanClusterNodes 	4.6666666666667
scalar RSUExampleScenario.node[50].appl 	meanClusterHeadUtility 	5.1666489192325
scalar RSUExampleScenario.node[50].appl 	NumberofCH 	0.16216216216216
scalar RSUExampleScenario.node[50].appl 	NumberofON 	0.67567567567568
scalar RSUExampleScenario.node[50].appl 	NumberofFN 	0.16216216216216
scalar RSUExampleScenario.node[50].veinsmobility 	startTime 	120.6
scalar RSUExampleScenario.node[50].veinsmobility 	totalTime 	329.4
scalar RSUExampleScenario.node[50].veinsmobility 	stopTime 	450
scalar RSUExampleScenario.node[50].veinsmobility 	minSpeed 	0
scalar RSUExampleScenario.node[50].veinsmobility 	maxSpeed 	13.999839124486
scalar RSUExampleScenario.node[50].veinsmobility 	totalDistance 	1426.1677327177
scalar RSUExampleScenario.node[50].veinsmobility 	totalCO2Emission 	531.44765713144
scalar RSUExampleScenario.node[51].appl 	meanClusterNodes 	5
scalar RSUExampleScenario.node[51].appl 	meanClusterHeadUtility 	5.7708046936207
scalar RSUExampleScenario.node[51].appl 	NumberofCH 	0.16216216216216
scalar RSUExampleScenario.node[51].appl 	NumberofON 	0.62162162162162
scalar RSUExampleScenario.node[51].appl 	NumberofFN 	0.21621621621622
scalar RSUExampleScenario.node[51].veinsmobility 	startTime 	123
scalar RSUExampleScenario.node[51].veinsmobility 	totalTime 	327
scalar RSUExampleScenario.node[51].veinsmobility 	stopTime 	450
scalar RSUExampleScenario.node[51].veinsmobility 	minSpeed 	0
scalar RSUExampleScenario.node[51].veinsmobility 	maxSpeed 	13.999787892806
scalar RSUExampleScenario.node[51].veinsmobility 	totalDistance 	1393.1562223279
scalar RSUExampleScenario.node[51].veinsmobility 	totalCO2Emission 	522.6129332613
scalar RSUExampleScenario.node[52].appl 	meanClusterNodes 	3.75
scalar RSUExampleScenario.node[52].appl 	meanClusterHeadUtility 	4.0988333482592
scalar RSUExampleScenario.node[52].appl 	NumberofCH 	0.21621621621622
scalar RSUExampleScenario.node[52].appl 	NumberofON 	0.75675675675676
scalar RSUExampleScenario.node[52].appl 	NumberofFN 	0.027027027027027
scalar RSUExampleScenario.node[52].veinsmobility 	startTime 	125.4
scalar RSUExampleScenario.node[52].veinsmobility 	totalTime 	324.6
scalar RSUExampleScenario.node[52].veinsmobility 	stopTime 	450
scalar RSUExampleScenario.node[52].veinsmobility 	minSpeed 	0
scalar RSUExampleScenario.node[52].veinsmobility 	maxSpeed 	13.999825421534
scalar RSUExampleScenario.node[52].veinsmobility 	totalDistance 	1360.5459544452
scalar RSUExampleScenario.node[52].veinsmobility 	totalCO2Emission 	520.37466818916
scalar RSUExampleScenario.node[53].appl 	meanClusterNodes 	3.4
scalar RSUExampleScenario.node[53].appl 	meanClusterHeadUtility 	3.3613784896625
scalar RSUExampleScenario.node[53].appl 	NumberofCH 	0.27027027027027
scalar RSUExampleScenario.node[53].appl 	NumberofON 	0.43243243243243
scalar RSUExampleScenario.node[53].appl 	NumberofFN 	0.2972972972973
scalar RSUExampleScenario.node[53].veinsmobility 	startTime 	127.8
scalar RSUExampleScenario.node[53].veinsmobility 	totalTime 	322.2
scalar RSUExampleScenario.node[53].veinsmobility 	stopTime 	450
scalar RSUExampleScenario.node[53].veinsmobility 	minSpeed 	0
scalar RSUExampleScenario.node[53].veinsmobility 	maxSpeed 	13.999899069713
scalar RSUExampleScenario.node[53].veinsmobility 	totalDistance 	1326.3314591546
scalar RSUExampleScenario.node[53].veinsmobility 	totalCO2Emission 	513.19327521483
scalar RSUExampleScenario.node[54].appl 	meanClusterNodes 	1.75
scalar RSUExampleScenario.node[54].appl 	meanClusterHeadUtility 	3.910230563151
scalar RSUExampleScenario.node[54].appl 	NumberofCH 	0.21621621621622
scalar RSUExampleScenario.node[54].appl 	NumberofON 	0.75675675675676
scalar RSUExampleScenario.node[54].appl 	NumberofFN 	0.027027027027027
scalar RSUExampleScenario.node[54].veinsmobility 	startTime 	130.2
scalar RSUExampleScenario.node[54].veinsmobility 	totalTime 	319.8
scalar RSUExampleScenario.node[54].veinsmobility 	stopTime 	450
scalar RSUExampleScenario.node[54].veinsmobility 	minSpeed 	0
scalar RSUExampleScenario.node[54].veinsmobility 	maxSpeed 	13.999929242716
scalar RSUExampleScenario.node[54].veinsmobility 	totalDistance 	1293.7800425319
scalar RSUExampleScenario.node[54].veinsmobility 	totalCO2Emission 	506.89144841226
scalar RSUExampleScenario.node[55].appl 	meanClusterNodes 	5.3333333333333
scalar RSUExampleScenario.node[55].appl 	meanClusterHeadUtility 	5.6737857308332
scalar RSUExampleScenario.node[55].appl 	NumberofCH 	0.16216216216216
scalar RSUExampleScenario.node[55].appl 	NumberofON 	0.48648648648649
scalar RSUExampleScenario.node[55].appl 	NumberofFN 	0.35135135135135
scalar RSUExampleScenario.node[55].veinsmobility 	startTime 	132.6
scalar RSUExampleScenario.node[55].veinsmobility 	totalTime 	317.4
scalar RSUExampleScenario.node[55].veinsmobility 	stopTime 	450
scalar RSUExampleScenario.node[55].veinsmobility 	minSpeed 	0
scalar RSUExampleScenario.node[55].veinsmobility 	maxSpeed 	13.999890150253
scalar RSUExampleScenario.node[55].veinsmobility 	totalDistance 	1260.174329058
scalar RSUExampleScenario.node[55].veinsmobility 	totalCO2Emission 	504.3317543163
scalar RSUExampleScenario.node[56].appl 	meanClusterNodes 	3.3333333333333
scalar RSUExampleScenario.node[56].appl 	meanClusterHeadUtility 	5.7118184982035
scalar RSUExampleScenario.node[56].appl 	NumberofCH 	0.16216216216216
scalar RSUExampleScenario.node[56].appl 	NumberofON 	0.45945945945946
scalar RSUExampleScenario.node[56].appl 	NumberofFN 	0.37837837837838
scalar RSUExampleScenario.node[56].veinsmobility 	startTime 	135
scalar RSUExampleScenario.node[56].veinsmobility 	totalTime 	315
scalar RSUExampleScenario.node[56].veinsmobility 	stopTime 	450
scalar RSUExampleScenario.node[56].veinsmobility 	minSpeed 	0
scalar RSUExampleScenario.node[56].veinsmobility 	maxSpeed 	13.999599994672
scalar RSUExampleScenario.node[56].veinsmobility 	totalDistance 	1226.499951233
scalar RSUExampleScenario.node[56].veinsmobility 	totalCO2Emission 	494.35211943059
scalar RSUExampleScenario.node[57].appl 	meanClusterNodes 	1.625
scalar RSUExampleScenario.node[57].appl 	meanClusterHeadUtility 	4.5984304534149
scalar RSUExampleScenario.node[57].appl 	NumberofCH 	0.21621621621622
scalar RSUExampleScenario.node[57].appl 	NumberofON 	0.7027027027027
scalar RSUExampleScenario.node[57].appl 	NumberofFN 	0.081081081081081
scalar RSUExampleScenario.node[57].veinsmobility 	startTime 	137.4
scalar RSUExampleScenario.node[57].veinsmobility 	totalTime 	312.6
scalar RSUExampleScenario.node[57].veinsmobility 	stopTime 	450
scalar RSUExampleScenario.node[57].veinsmobility 	minSpeed 	0
scalar RSUExampleScenario.node[57].veinsmobility 	maxSpeed 	13.999910064044
scalar RSUExampleScenario.node[57].veinsmobility 	totalDistance 	1192.3984432358
scalar RSUExampleScenario.node[57].veinsmobility 	totalCO2Emission 	491.27400205958
scalar RSUExampleScenario.node[58].appl 	meanClusterNodes 	1.8571428571429
scalar RSUExampleScenario.node[58].appl 	meanClusterHeadUtility 	4.817617423391
scalar RSUExampleScenario.node[58].appl 	NumberofCH 	0.18918918918919
scalar RSUExampleScenario.node[58].appl 	NumberofON 	0.81081081081081
scalar RSUExampleScenario.node[58].appl 	NumberofFN 	0
scalar RSUExampleScenario.node[58].veinsmobility 	startTime 	139.8
scalar RSUExampleScenario.node[58].veinsmobility 	totalTime 	310.2
scalar RSUExampleScenario.node[58].veinsmobility 	stopTime 	450
scalar RSUExampleScenario.node[58].veinsmobility 	minSpeed 	0
scalar RSUExampleScenario.node[58].veinsmobility 	maxSpeed 	13.999978474106
scalar RSUExampleScenario.node[58].veinsmobility 	totalDistance 	1158.6335933624
scalar RSUExampleScenario.node[58].veinsmobility 	totalCO2Emission 	486.51830947018
scalar RSUExampleScenario.node[59].appl 	meanClusterNodes 	3.25
scalar RSUExampleScenario.node[59].appl 	meanClusterHeadUtility 	4.2005691491754
scalar RSUExampleScenario.node[59].appl 	NumberofCH 	0.21621621621622
scalar RSUExampleScenario.node[59].appl 	NumberofON 	0.56756756756757
scalar RSUExampleScenario.node[59].appl 	NumberofFN 	0.21621621621622
scalar RSUExampleScenario.node[59].veinsmobility 	startTime 	142.2
scalar RSUExampleScenario.node[59].veinsmobility 	totalTime 	307.8
scalar RSUExampleScenario.node[59].veinsmobility 	stopTime 	450
scalar RSUExampleScenario.node[59].veinsmobility 	minSpeed 	0
scalar RSUExampleScenario.node[59].veinsmobility 	maxSpeed 	13.999958608109
scalar RSUExampleScenario.node[59].veinsmobility 	totalDistance 	1124.1790843963
scalar RSUExampleScenario.node[59].veinsmobility 	totalCO2Emission 	479.18855057312
scalar RSUExampleScenario.node[6].appl 	meanClusterNodes 	2.5
scalar RSUExampleScenario.node[6].appl 	meanClusterHeadUtility 	6.6285928451044
scalar RSUExampleScenario.node[6].appl 	NumberofCH 	0.16216216216216
scalar RSUExampleScenario.node[6].appl 	NumberofON 	0.43243243243243
scalar RSUExampleScenario.node[6].appl 	NumberofFN 	0.40540540540541
scalar RSUExampleScenario.node[6].veinsmobility 	startTime 	14.5
scalar RSUExampleScenario.node[6].veinsmobility 	totalTime 	435.5
scalar RSUExampleScenario.node[6].veinsmobility 	stopTime 	450
scalar RSUExampleScenario.node[6].veinsmobility 	minSpeed 	0
scalar RSUExampleScenario.node[6].veinsmobility 	maxSpeed 	13.99999777606
scalar RSUExampleScenario.node[6].veinsmobility 	totalDistance 	2901.9747415757
scalar RSUExampleScenario.node[6].veinsmobility 	totalCO2Emission 	780.39453498155
scalar RSUExampleScenario.node[60].appl 	meanClusterNodes 	3.1
scalar RSUExampleScenario.node[60].appl 	meanClusterHeadUtility 	3.206880674832
scalar RSUExampleScenario.node[60].appl 	NumberofCH 	0.27027027027027
scalar RSUExampleScenario.node[60].appl 	NumberofON 	0.64864864864865
scalar RSUExampleScenario.node[60].appl 	NumberofFN 	0.081081081081081
scalar RSUExampleScenario.node[60].veinsmobility 	startTime 	144.7
scalar RSUExampleScenario.node[60].veinsmobility 	totalTime 	305.3
scalar RSUExampleScenario.node[60].veinsmobility 	stopTime 	450
scalar RSUExampleScenario.node[60].veinsmobility 	minSpeed 	0
scalar RSUExampleScenario.node[60].veinsmobility 	maxSpeed 	13.999991714866
scalar RSUExampleScenario.node[60].veinsmobility 	totalDistance 	1090.7511410874
scalar RSUExampleScenario.node[60].veinsmobility 	totalCO2Emission 	472.99550724773
scalar RSUExampleScenario.node[61].appl 	meanClusterNodes 	3.3333333333333
scalar RSUExampleScenario.node[61].appl 	meanClusterHeadUtility 	5.5241487986885
scalar RSUExampleScenario.node[61].appl 	NumberofCH 	0.16216216216216
scalar RSUExampleScenario.node[61].appl 	NumberofON 	0.37837837837838
scalar RSUExampleScenario.node[61].appl 	NumberofFN 	0.45945945945946
scalar RSUExampleScenario.node[61].veinsmobility 	startTime 	147.1
scalar RSUExampleScenario.node[61].veinsmobility 	totalTime 	302.9
scalar RSUExampleScenario.node[61].veinsmobility 	stopTime 	450
scalar RSUExampleScenario.node[61].veinsmobility 	minSpeed 	0
scalar RSUExampleScenario.node[61].veinsmobility 	maxSpeed 	13.999911148697
scalar RSUExampleScenario.node[61].veinsmobility 	totalDistance 	1057.2325642573
scalar RSUExampleScenario.node[61].veinsmobility 	totalCO2Emission 	467.928045017
scalar RSUExampleScenario.node[62].appl 	meanClusterNodes 	2
scalar RSUExampleScenario.node[62].appl 	meanClusterHeadUtility 	5.8933385419179
scalar RSUExampleScenario.node[62].appl 	NumberofCH 	0.16216216216216
scalar RSUExampleScenario.node[62].appl 	NumberofON 	0.56756756756757
scalar RSUExampleScenario.node[62].appl 	NumberofFN 	0.27027027027027
scalar RSUExampleScenario.node[62].veinsmobility 	startTime 	149.5
scalar RSUExampleScenario.node[62].veinsmobility 	totalTime 	300.5
scalar RSUExampleScenario.node[62].veinsmobility 	stopTime 	450
scalar RSUExampleScenario.node[62].veinsmobility 	minSpeed 	0
scalar RSUExampleScenario.node[62].veinsmobility 	maxSpeed 	13.999904264032
scalar RSUExampleScenario.node[62].veinsmobility 	totalDistance 	1023.2498220144
scalar RSUExampleScenario.node[62].veinsmobility 	totalCO2Emission 	464.11077963851
scalar RSUExampleScenario.node[63].appl 	meanClusterNodes 	2.625
scalar RSUExampleScenario.node[63].appl 	meanClusterHeadUtility 	4.2949604595459
scalar RSUExampleScenario.node[63].appl 	NumberofCH 	0.21621621621622
scalar RSUExampleScenario.node[63].appl 	NumberofON 	0.75675675675676
scalar RSUExampleScenario.node[63].appl 	NumberofFN 	0.027027027027027
scalar RSUExampleScenario.node[63].veinsmobility 	startTime 	151.9
scalar RSUExampleScenario.node[63].veinsmobility 	totalTime 	298.1
scalar RSUExampleScenario.node[63].veinsmobility 	stopTime 	450
scalar RSUExampleScenario.node[63].veinsmobility 	minSpeed 	0
scalar RSUExampleScenario.node[63].veinsmobility 	maxSpeed 	13.999927184978
scalar RSUExampleScenario.node[63].veinsmobility 	totalDistance 	985.10657812173
scalar RSUExampleScenario.node[63].veinsmobility 	totalCO2Emission 	448.72243290774
scalar RSUExampleScenario.node[64].appl 	meanClusterNodes 	2.5
scalar RSUExampleScenario.node[64].appl 	meanClusterHeadUtility 	4.8789567701983
scalar RSUExampleScenario.node[64].appl 	NumberofCH 	0.21621621621622
scalar RSUExampleScenario.node[64].appl 	NumberofON 	0.75675675675676
scalar RSUExampleScenario.node[64].appl 	NumberofFN 	0.027027027027027
scalar RSUExampleScenario.node[64].veinsmobility 	startTime 	154.3
scalar RSUExampleScenario.node[64].veinsmobility 	totalTime 	295.7
scalar RSUExampleScenario.node[64].veinsmobility 	stopTime 	450
scalar RSUExampleScenario.node[64].veinsmobility 	minSpeed 	0
scalar RSUExampleScenario.node[64].veinsmobility 	maxSpeed 	13.999917033429
scalar RSUExampleScenario.node[64].veinsmobility 	totalDistance 	953.51981023307
scalar RSUExampleScenario.node[64].veinsmobility 	totalCO2Emission 	434.70998499258
scalar RSUExampleScenario.node[65].appl 	meanClusterNodes 	1.8
scalar RSUExampleScenario.node[65].appl 	meanClusterHeadUtility 	3.3923829637148
scalar RSUExampleScenario.node[65].appl 	NumberofCH 	0.27027027027027
scalar RSUExampleScenario.node[65].appl 	NumberofON 	0.72972972972973
scalar RSUExampleScenario.node[65].appl 	NumberofFN 	0
scalar RSUExampleScenario.node[65].veinsmobility 	startTime 	156.7
scalar RSUExampleScenario.node[65].veinsmobility 	totalTime 	293.3
scalar RSUExampleScenario.node[65].veinsmobility 	stopTime 	450
scalar RSUExampleScenario.node[65].veinsmobility 	minSpeed 	0
scalar RSUExampleScenario.node[65].veinsmobility 	maxSpeed 	13.99998152978
scalar RSUExampleScenario.node[65].veinsmobility 	totalDistance 	940.38089172165
scalar RSUExampleScenario.node[65].veinsmobility 	totalCO2Emission 	429.91203456838
scalar RSUExampleScenario.node[66].appl 	meanClusterNodes 	2
scalar RSUExampleScenario.node[66].appl 	meanClusterHeadUtility 	5.4935191054265
scalar RSUExampleScenario.node[66].appl 	NumberofCH 	0.16216216216216
scalar RSUExampleScenario.node[66].appl 	NumberofON 	0.67567567567568
scalar RSUExampleScenario.node[66].appl 	NumberofFN 	0.16216216216216
scalar RSUExampleScenario.node[66].veinsmobility 	startTime 	159.1
scalar RSUExampleScenario.node[66].veinsmobility 	totalTime 	290.9
scalar RSUExampleScenario.node[66].veinsmobility 	stopTime 	450
scalar RSUExampleScenario.node[66].veinsmobility 	minSpeed 	0
scalar RSUExampleScenario.node[66].veinsmobility 	maxSpeed 	13.999034162897
scalar RSUExampleScenario.node[66].veinsmobility 	totalDistance 	928.01662630244
scalar RSUExampleScenario.node[66].veinsmobility 	totalCO2Emission 	425.61904212261
scalar RSUExampleScenario.node[67].appl 	meanClusterNodes 	2.4
scalar RSUExampleScenario.node[67].appl 	meanClusterHeadUtility 	3.5129921628285
scalar RSUExampleScenario.node[67].appl 	NumberofCH 	0.27027027027027
scalar RSUExampleScenario.node[67].appl 	NumberofON 	0.64864864864865
scalar RSUExampleScenario.node[67].appl 	NumberofFN 	0.081081081081081
scalar RSUExampleScenario.node[67].veinsmobility 	startTime 	161.5
scalar RSUExampleScenario.node[67].veinsmobility 	totalTime 	288.5
scalar RSUExampleScenario.node[67].veinsmobility 	stopTime 	450
scalar RSUExampleScenario.node[67].veinsmobility 	minSpeed 	0
scalar RSUExampleScenario.node[67].veinsmobility 	maxSpeed 	13.999966156611
scalar RSUExampleScenario.node[67].veinsmobility 	totalDistance 	912.97396253906
scalar RSUExampleScenario.node[67].veinsmobility 	totalCO2Emission 	423.33108076256
scalar RSUExampleScenario.node[68].appl 	meanClusterNodes 	3.5
scalar RSUExampleScenario.node[68].appl 	meanClusterHeadUtility 	5.8264475683551
scalar RSUExampleScenario.node[68].appl 	NumberofCH 	0.16216216216216
scalar RSUExampleScenario.node[68].appl 	NumberofON 	0.64864864864865
scalar RSUExampleScenario.node[68].appl 	NumberofFN 	0.18918918918919
scalar RSUExampleScenario.node[68].veinsmobility 	startTime 	163.9
scalar RSUExampleScenario.node[68].veinsmobility 	totalTime 	286.1
scalar RSUExampleScenario.node[68].veinsmobility 	stopTime 	450
scalar RSUExampleScenario.node[68].veinsmobility 	minSpeed 	0
scalar RSUExampleScenario.node[68].veinsmobility 	maxSpeed 	13.999718935317
scalar RSUExampleScenario.node[68].veinsmobility 	totalDistance 	893.21594594575
scalar RSUExampleScenario.node[68].veinsmobility 	totalCO2Emission 	419.97725123373
scalar RSUExampleScenario.node[69].appl 	meanClusterNodes 	2.5
scalar RSUExampleScenario.node[69].appl 	meanClusterHeadUtility 	5.8557678337918
scalar RSUExampleScenario.node[69].appl 	NumberofCH 	0.16216216216216
scalar RSUExampleScenario.node[69].appl 	NumberofON 	0.83783783783784
scalar RSUExampleScenario.node[69].appl 	NumberofFN 	0
scalar RSUExampleScenario.node[69].veinsmobility 	startTime 	166.3
scalar RSUExampleScenario.node[69].veinsmobility 	totalTime 	283.7
scalar RSUExampleScenario.node[69].veinsmobility 	stopTime 	450
scalar RSUExampleScenario.node[69].veinsmobility 	minSpeed 	0
scalar RSUExampleScenario.node[69].veinsmobility 	maxSpeed 	13.99973264626
scalar RSUExampleScenario.node[69].veinsmobility 	totalDistance 	860.00902846473
scalar RSUExampleScenario.node[69].veinsmobility 	totalCO2Emission 	412.88998935925
scalar RSUExampleScenario.node[7].appl 	meanClusterNodes 	0.83333333333333
scalar RSUExampleScenario.node[7].appl 	meanClusterHeadUtility 	5.9254017024282
scalar RSUExampleScenario.node[7].appl 	NumberofCH 	0.16216216216216
scalar RSUExampleScenario.node[7].appl 	NumberofON 	0.7027027027027
scalar RSUExampleScenario.node[7].appl 	NumberofFN 	0.13513513513514
scalar RSUExampleScenario.node[7].veinsmobility 	startTime 	16.9
scalar RSUExampleScenario.node[7].veinsmobility 	totalTime 	433.1
scalar RSUExampleScenario.node[7].veinsmobility 	stopTime 	450
scalar RSUExampleScenario.node[7].veinsmobility 	minSpeed 	0
scalar RSUExampleScenario.node[7].veinsmobility 	maxSpeed 	13.999885379504
scalar RSUExampleScenario.node[7].veinsmobility 	totalDistance 	2889.4069134556
scalar RSUExampleScenario.node[7].veinsmobility 	totalCO2Emission 	771.89995499879
scalar RSUExampleScenario.node[70].appl 	meanClusterNodes 	2
scalar RSUExampleScenario.node[70].appl 	meanClusterHeadUtility 	4.3939747655548
scalar RSUExampleScenario.node[70].appl 	NumberofCH 	0.18918918918919
scalar RSUExampleScenario.node[70].appl 	NumberofON 	0.64864864864865
scalar RSUExampleScenario.node[70].appl 	NumberofFN 	0.16216216216216
scalar RSUExampleScenario.node[70].veinsmobility 	startTime 	168.8
scalar RSUExampleScenario.node[70].veinsmobility 	totalTime 	281.2
scalar RSUExampleScenario.node[70].veinsmobility 	stopTime 	450
scalar RSUExampleScenario.node[70].veinsmobility 	minSpeed 	0
scalar RSUExampleScenario.node[70].veinsmobility 	maxSpeed 	13.999812999917
scalar RSUExampleScenario.node[70].veinsmobility 	totalDistance 	825.46593732978
scalar RSUExampleScenario.node[70].veinsmobility 	totalCO2Emission 	406.48721953716
scalar RSUExampleScenario.node[71].appl 	meanClusterNodes 	2.3333333333333
scalar RSUExampleScenario.node[71].appl 	meanClusterHeadUtility 	6.0612844149643
scalar RSUExampleScenario.node[71].appl 	NumberofCH 	0.16216216216216
scalar RSUExampleScenario.node[71].appl 	NumberofON 	0.43243243243243
scalar RSUExampleScenario.node[71].appl 	NumberofFN 	0.40540540540541
scalar RSUExampleScenario.node[71].veinsmobility 	startTime 	171.2
scalar RSUExampleScenario.node[71].veinsmobility 	totalTime 	278.8
scalar RSUExampleScenario.node[71].veinsmobility 	stopTime 	450
scalar RSUExampleScenario.node[71].veinsmobility 	minSpeed 	0
scalar RSUExampleScenario.node[71].veinsmobility 	maxSpeed 	13.999788081709
scalar RSUExampleScenario.node[71].veinsmobility 	totalDistance 	793.20433633431
scalar RSUExampleScenario.node[71].veinsmobility 	totalCO2Emission 	401.98520621741
scalar RSUExampleScenario.node[72].appl 	meanClusterNodes 	1.1666666666667
scalar RSUExampleScenario.node[72].appl 	meanClusterHeadUtility 	5.4977952825572
scalar RSUExampleScenario.node[72].appl 	NumberofCH 	0.16216216216216
scalar RSUExampleScenario.node[72].appl 	NumberofON 	0.59459459459459
scalar RSUExampleScenario.node[72].appl 	NumberofFN 	0.24324324324324
scalar RSUExampleScenario.node[72].veinsmobility 	startTime 	173.6
scalar RSUExampleScenario.node[72].veinsmobility 	totalTime 	276.4
scalar RSUExampleScenario.node[72].veinsmobility 	stopTime 	450
scalar RSUExampleScenario.node[72].veinsmobility 	minSpeed 	0
scalar RSUExampleScenario.node[72].veinsmobility 	maxSpeed 	13.999791096703
scalar RSUExampleScenario.node[72].veinsmobility 	totalDistance 	760.61968100889
scalar RSUExampleScenario.node[72].veinsmobility 	totalCO2Emission 	396.37028530168
scalar RSUExampleScenario.node[73].appl 	meanClusterNodes 	5.1666666666667
scalar RSUExampleScenario.node[73].appl 	meanClusterHeadUtility 	5.8077135915952
scalar RSUExampleScenario.node[73].appl 	NumberofCH 	0.16216216216216
scalar RSUExampleScenario.node[73].appl 	NumberofON 	0.7027027027027
scalar RSUExampleScenario.node[73].appl 	NumberofFN 	0.13513513513514
scalar RSUExampleScenario.node[73].veinsmobility 	startTime 	176
scalar RSUExampleScenario.node[73].veinsmobility 	totalTime 	274
scalar RSUExampleScenario.node[73].veinsmobility 	stopTime 	450
scalar RSUExampleScenario.node[73].veinsmobility 	minSpeed 	0
scalar RSUExampleScenario.node[73].veinsmobility 	maxSpeed 	13.999932352388
scalar RSUExampleScenario.node[73].veinsmobility 	totalDistance 	726.84561335548
scalar RSUExampleScenario.node[73].veinsmobility 	totalCO2Emission 	390.57049150498
scalar RSUExampleScenario.node[74].appl 	meanClusterNodes 	2.8888888888889
scalar RSUExampleScenario.node[74].appl 	meanClusterHeadUtility 	3.6109641395478
scalar RSUExampleScenario.node[74].appl 	NumberofCH 	0.24324324324324
scalar RSUExampleScenario.node[74].appl 	NumberofON 	0.7027027027027
scalar RSUExampleScenario.node[74].appl 	NumberofFN 	0.054054054054054
scalar RSUExampleScenario.node[74].veinsmobility 	startTime 	178.4
scalar RSUExampleScenario.node[74].veinsmobility 	totalTime 	271.6
scalar RSUExampleScenario.node[74].veinsmobility 	stopTime 	450
scalar RSUExampleScenario.node[74].veinsmobility 	minSpeed 	0
scalar RSUExampleScenario.node[74].veinsmobility 	maxSpeed 	13.998623083725
scalar RSUExampleScenario.node[74].veinsmobility 	totalDistance 	692.05021378891
scalar RSUExampleScenario.node[74].veinsmobility 	totalCO2Emission 	384.84953212583
scalar RSUExampleScenario.node[75].appl 	meanClusterNodes 	1.4285714285714
scalar RSUExampleScenario.node[75].appl 	meanClusterHeadUtility 	4.8044775195398
scalar RSUExampleScenario.node[75].appl 	NumberofCH 	0.18918918918919
scalar RSUExampleScenario.node[75].appl 	NumberofON 	0.7027027027027
scalar RSUExampleScenario.node[75].appl 	NumberofFN 	0.10810810810811
scalar RSUExampleScenario.node[75].veinsmobility 	startTime 	180.8
scalar RSUExampleScenario.node[75].veinsmobility 	totalTime 	269.2
scalar RSUExampleScenario.node[75].veinsmobility 	stopTime 	450
scalar RSUExampleScenario.node[75].veinsmobility 	minSpeed 	0
scalar RSUExampleScenario.node[75].veinsmobility 	maxSpeed 	13.999794373757
scalar RSUExampleScenario.node[75].veinsmobility 	totalDistance 	659.90653026147
scalar RSUExampleScenario.node[75].veinsmobility 	totalCO2Emission 	378.4432076699
scalar RSUExampleScenario.node[76].appl 	meanClusterNodes 	4.8333333333333
scalar RSUExampleScenario.node[76].appl 	meanClusterHeadUtility 	5.3730101251895
scalar RSUExampleScenario.node[76].appl 	NumberofCH 	0.16216216216216
scalar RSUExampleScenario.node[76].appl 	NumberofON 	0.72972972972973
scalar RSUExampleScenario.node[76].appl 	NumberofFN 	0.10810810810811
scalar RSUExampleScenario.node[76].veinsmobility 	startTime 	183.2
scalar RSUExampleScenario.node[76].veinsmobility 	totalTime 	266.8
scalar RSUExampleScenario.node[76].veinsmobility 	stopTime 	450
scalar RSUExampleScenario.node[76].veinsmobility 	minSpeed 	0
scalar RSUExampleScenario.node[76].veinsmobility 	maxSpeed 	13.999364135587
scalar RSUExampleScenario.node[76].veinsmobility 	totalDistance 	624.74947021902
scalar RSUExampleScenario.node[76].veinsmobility 	totalCO2Emission 	374.92798266871
scalar RSUExampleScenario.node[77].appl 	meanClusterNodes 	4
scalar RSUExampleScenario.node[77].appl 	meanClusterHeadUtility 	5.6293203632139
scalar RSUExampleScenario.node[77].appl 	NumberofCH 	0.16216216216216
scalar RSUExampleScenario.node[77].appl 	NumberofON 	0.40540540540541
scalar RSUExampleScenario.node[77].appl 	NumberofFN 	0.43243243243243
scalar RSUExampleScenario.node[77].veinsmobility 	startTime 	185.6
scalar RSUExampleScenario.node[77].veinsmobility 	totalTime 	264.4
scalar RSUExampleScenario.node[77].veinsmobility 	stopTime 	450
scalar RSUExampleScenario.node[77].veinsmobility 	minSpeed 	0
scalar RSUExampleScenario.node[77].veinsmobility 	maxSpeed 	13.999755653711
scalar RSUExampleScenario.node[77].veinsmobility 	totalDistance 	592.20742469327
scalar RSUExampleScenario.node[77].veinsmobility 	totalCO2Emission 	367.54966737492
scalar RSUExampleScenario.node[78].appl 	meanClusterNodes 	3.5
scalar RSUExampleScenario.node[78].appl 	meanClusterHeadUtility 	4.3828913815695
scalar RSUExampleScenario.node[78].appl 	NumberofCH 	0.21621621621622
scalar RSUExampleScenario.node[78].appl 	NumberofON 	0.48648648648649
scalar RSUExampleScenario.node[78].appl 	NumberofFN 	0.2972972972973
scalar RSUExampleScenario.node[78].veinsmobility 	startTime 	188
scalar RSUExampleScenario.node[78].veinsmobility 	totalTime 	262
scalar RSUExampleScenario.node[78].veinsmobility 	stopTime 	450
scalar RSUExampleScenario.node[78].veinsmobility 	minSpeed 	0
scalar RSUExampleScenario.node[78].veinsmobility 	maxSpeed 	13.999620281335
scalar RSUExampleScenario.node[78].veinsmobility 	totalDistance 	558.92336298879
scalar RSUExampleScenario.node[78].veinsmobility 	totalCO2Emission 	361.60926784579
scalar RSUExampleScenario.node[79].appl 	meanClusterNodes 	2
scalar RSUExampleScenario.node[79].appl 	meanClusterHeadUtility 	5.0687895793174
scalar RSUExampleScenario.node[79].appl 	NumberofCH 	0.18918918918919
scalar RSUExampleScenario.node[79].appl 	NumberofON 	0.72972972972973
scalar RSUExampleScenario.node[79].appl 	NumberofFN 	0.081081081081081
scalar RSUExampleScenario.node[79].veinsmobility 	startTime 	190.4
scalar RSUExampleScenario.node[79].veinsmobility 	totalTime 	259.6
scalar RSUExampleScenario.node[79].veinsmobility 	stopTime 	450
scalar RSUExampleScenario.node[79].veinsmobility 	minSpeed 	0
scalar RSUExampleScenario.node[79].veinsmobility 	maxSpeed 	13.999740682107
scalar RSUExampleScenario.node[79].veinsmobility 	totalDistance 	524.53893600996
scalar RSUExampleScenario.node[79].veinsmobility 	totalCO2Emission 	356.22977690457
scalar RSUExampleScenario.node[8].appl 	meanClusterNodes 	1
scalar RSUExampleScenario.node[8].appl 	meanClusterHeadUtility 	6.129634770342
scalar RSUExampleScenario.node[8].appl 	NumberofCH 	0.16216216216216
scalar RSUExampleScenario.node[8].appl 	NumberofON 	0.24324324324324
scalar RSUExampleScenario.node[8].appl 	NumberofFN 	0.59459459459459
scalar RSUExampleScenario.node[8].veinsmobility 	startTime 	19.3
scalar RSUExampleScenario.node[8].veinsmobility 	totalTime 	430.7
scalar RSUExampleScenario.node[8].veinsmobility 	stopTime 	450
scalar RSUExampleScenario.node[8].veinsmobility 	minSpeed 	0
scalar RSUExampleScenario.node[8].veinsmobility 	maxSpeed 	13.999993495138
scalar RSUExampleScenario.node[8].veinsmobility 	totalDistance 	2859.0306768093
scalar RSUExampleScenario.node[8].veinsmobility 	totalCO2Emission 	772.98826603564
scalar RSUExampleScenario.node[80].appl 	meanClusterNodes 	4.25
scalar RSUExampleScenario.node[80].appl 	meanClusterHeadUtility 	4.142394072795
scalar RSUExampleScenario.node[80].appl 	NumberofCH 	0.21621621621622
scalar RSUExampleScenario.node[80].appl 	NumberofON 	0.48648648648649
scalar RSUExampleScenario.node[80].appl 	NumberofFN 	0.2972972972973
scalar RSUExampleScenario.node[80].veinsmobility 	startTime 	192.9
scalar RSUExampleScenario.node[80].veinsmobility 	totalTime 	257.1
scalar RSUExampleScenario.node[80].veinsmobility 	stopTime 	450
scalar RSUExampleScenario.node[80].veinsmobility 	minSpeed 	0
scalar RSUExampleScenario.node[80].veinsmobility 	maxSpeed 	13.999180649738
scalar RSUExampleScenario.node[80].veinsmobility 	totalDistance 	488.54905611071
scalar RSUExampleScenario.node[80].veinsmobility 	totalCO2Emission 	350.53663921479
scalar RSUExampleScenario.node[81].appl 	meanClusterNodes 	3
scalar RSUExampleScenario.node[81].appl 	meanClusterHeadUtility 	4.4824229551776
scalar RSUExampleScenario.node[81].appl 	NumberofCH 	0.21621621621622
scalar RSUExampleScenario.node[81].appl 	NumberofON 	0.62162162162162
scalar RSUExampleScenario.node[81].appl 	NumberofFN 	0.16216216216216
scalar RSUExampleScenario.node[81].veinsmobility 	startTime 	195.3
scalar RSUExampleScenario.node[81].veinsmobility 	totalTime 	254.7
scalar RSUExampleScenario.node[81].veinsmobility 	stopTime 	450
scalar RSUExampleScenario.node[81].veinsmobility 	minSpeed 	0
scalar RSUExampleScenario.node[81].veinsmobility 	maxSpeed 	13.998828571795
scalar RSUExampleScenario.node[81].veinsmobility 	totalDistance 	455.14233806319
scalar RSUExampleScenario.node[81].veinsmobility 	totalCO2Emission 	344.17202884517
scalar RSUExampleScenario.node[82].appl 	meanClusterNodes 	4
scalar RSUExampleScenario.node[82].appl 	meanClusterHeadUtility 	6.4120204481709
scalar RSUExampleScenario.node[82].appl 	NumberofCH 	0.16216216216216
scalar RSUExampleScenario.node[82].appl 	NumberofON 	0.51351351351351
scalar RSUExampleScenario.node[82].appl 	NumberofFN 	0.32432432432432
scalar RSUExampleScenario.node[82].veinsmobility 	startTime 	197.7
scalar RSUExampleScenario.node[82].veinsmobility 	totalTime 	252.3
scalar RSUExampleScenario.node[82].veinsmobility 	stopTime 	450
scalar RSUExampleScenario.node[82].veinsmobility 	minSpeed 	0
scalar RSUExampleScenario.node[82].veinsmobility 	maxSpeed 	13.997635431397
scalar RSUExampleScenario.node[82].veinsmobility 	totalDistance 	421.83093838689
scalar RSUExampleScenario.node[82].veinsmobility 	totalCO2Emission 	339.53869597716
scalar RSUExampleScenario.node[83].appl 	meanClusterNodes 	3.375
scalar RSUExampleScenario.node[83].appl 	meanClusterHeadUtility 	4.3331504920441
scalar RSUExampleScenario.node[83].appl 	NumberofCH 	0.21621621621622
scalar RSUExampleScenario.node[83].appl 	NumberofON 	0.7027027027027
scalar RSUExampleScenario.node[83].appl 	NumberofFN 	0.081081081081081
scalar RSUExampleScenario.node[83].veinsmobility 	startTime 	200.1
scalar RSUExampleScenario.node[83].veinsmobility 	totalTime 	249.9
scalar RSUExampleScenario.node[83].veinsmobility 	stopTime 	450
scalar RSUExampleScenario.node[83].veinsmobility 	minSpeed 	0
scalar RSUExampleScenario.node[83].veinsmobility 	maxSpeed 	13.999385365096
scalar RSUExampleScenario.node[83].veinsmobility 	totalDistance 	388.71319789304
scalar RSUExampleScenario.node[83].veinsmobility 	totalCO2Emission 	334.72081938223
scalar RSUExampleScenario.node[84].appl 	meanClusterNodes 	4.25
scalar RSUExampleScenario.node[84].appl 	meanClusterHeadUtility 	4.0041743363928
scalar RSUExampleScenario.node[84].appl 	NumberofCH 	0.21621621621622
scalar RSUExampleScenario.node[84].appl 	NumberofON 	0.40540540540541
scalar RSUExampleScenario.node[84].appl 	NumberofFN 	0.37837837837838
scalar RSUExampleScenario.node[84].veinsmobility 	startTime 	202.5
scalar RSUExampleScenario.node[84].veinsmobility 	totalTime 	247.5
scalar RSUExampleScenario.node[84].veinsmobility 	stopTime 	450
scalar RSUExampleScenario.node[84].veinsmobility 	minSpeed 	0
scalar RSUExampleScenario.node[84].veinsmobility 	maxSpeed 	13.99737398176
scalar RSUExampleScenario.node[84].veinsmobility 	totalDistance 	355.29353518902
scalar RSUExampleScenario.node[84].veinsmobility 	totalCO2Emission 	328.54010071274
scalar RSUExampleScenario.node[85].appl 	meanClusterNodes 	4.5
scalar RSUExampleScenario.node[85].appl 	meanClusterHeadUtility 	4.3357568058998
scalar RSUExampleScenario.node[85].appl 	NumberofCH 	0.21621621621622
scalar RSUExampleScenario.node[85].appl 	NumberofON 	0.64864864864865
scalar RSUExampleScenario.node[85].appl 	NumberofFN 	0.13513513513514
scalar RSUExampleScenario.node[85].veinsmobility 	startTime 	204.9
scalar RSUExampleScenario.node[85].veinsmobility 	totalTime 	245.1
scalar RSUExampleScenario.node[85].veinsmobility 	stopTime 	450
scalar RSUExampleScenario.node[85].veinsmobility 	minSpeed 	0
scalar RSUExampleScenario.node[85].veinsmobility 	maxSpeed 	13.99675377331
scalar RSUExampleScenario.node[85].veinsmobility 	totalDistance 	322.20714687467
scalar RSUExampleScenario.node[85].veinsmobility 	totalCO2Emission 	322.67108738906
scalar RSUExampleScenario.node[86].appl 	meanClusterNodes 	1.75
scalar RSUExampleScenario.node[86].appl 	meanClusterHeadUtility 	4.0488782874028
scalar RSUExampleScenario.node[86].appl 	NumberofCH 	0.21621621621622
scalar RSUExampleScenario.node[86].appl 	NumberofON 	0.78378378378378
scalar RSUExampleScenario.node[86].appl 	NumberofFN 	0
scalar RSUExampleScenario.node[86].veinsmobility 	startTime 	207.3
scalar RSUExampleScenario.node[86].veinsmobility 	totalTime 	242.7
scalar RSUExampleScenario.node[86].veins