version 2
run statisticRVV-181-20150325-21:43:55-24172
attr c 7
attr configname statisticRVV
attr datetime 20150325-21:43:55
attr experiment statisticRVV
attr inifile omnetpp.ini
attr iterationvars "$sc=\"erlangen-medium.launchd.xml\", $p=1/8, $c=7"
attr iterationvars2 "$sc=\"erlangen-medium.launchd.xml\", $p=1/8, $c=7, $repetition=1"
attr measurement "$sc=\"erlangen-medium.launchd.xml\", $p=1/8, $c=7"
attr network RSUExampleScenario
attr p 1/8
attr processid 24172
attr repetition 1
attr replication #1
attr resultdir results
attr runnumber 181
attr sc "\"erlangen-medium.launchd.xml\""
attr seedset 181

scalar . 	c 	7
scalar RSUExampleScenario.node[0].veinsmobility 	startTime 	0.1
scalar RSUExampleScenario.node[0].veinsmobility 	totalTime 	264.4
scalar RSUExampleScenario.node[0].veinsmobility 	stopTime 	264.6
scalar RSUExampleScenario.node[0].veinsmobility 	minSpeed 	0.25318769950583
scalar RSUExampleScenario.node[0].veinsmobility 	maxSpeed 	13.999857228494
scalar RSUExampleScenario.node[0].veinsmobility 	totalDistance 	3409.2900111539
scalar RSUExampleScenario.node[0].veinsmobility 	totalCO2Emission 	692.2051943543
scalar RSUExampleScenario.node[1].veinsmobility 	startTime 	3.1
scalar RSUExampleScenario.node[1].veinsmobility 	totalTime 	265.3
scalar RSUExampleScenario.node[1].veinsmobility 	stopTime 	268.5
scalar RSUExampleScenario.node[1].veinsmobility 	minSpeed 	0.25926088127587
scalar RSUExampleScenario.node[1].veinsmobility 	maxSpeed 	13.999950766612
scalar RSUExampleScenario.node[1].veinsmobility 	totalDistance 	3409.4833711449
scalar RSUExampleScenario.node[1].veinsmobility 	totalCO2Emission 	692.14818497928
scalar RSUExampleScenario.node[2].veinsmobility 	startTime 	6.1
scalar RSUExampleScenario.node[2].veinsmobility 	totalTime 	266
scalar RSUExampleScenario.node[2].veinsmobility 	stopTime 	272.2
scalar RSUExampleScenario.node[2].veinsmobility 	minSpeed 	0.24848029921553
scalar RSUExampleScenario.node[2].veinsmobility 	maxSpeed 	13.999917430726
scalar RSUExampleScenario.node[2].veinsmobility 	totalDistance 	3409.5816484537
scalar RSUExampleScenario.node[2].veinsmobility 	totalCO2Emission 	695.23848485207
scalar RSUExampleScenario.node[3].veinsmobility 	startTime 	9.1
scalar RSUExampleScenario.node[3].veinsmobility 	totalTime 	266.4
scalar RSUExampleScenario.node[3].veinsmobility 	stopTime 	275.6
scalar RSUExampleScenario.node[3].veinsmobility 	minSpeed 	0.25106008365541
scalar RSUExampleScenario.node[3].veinsmobility 	maxSpeed 	13.999945119757
scalar RSUExampleScenario.node[3].veinsmobility 	totalDistance 	3413.8228223103
scalar RSUExampleScenario.node[3].veinsmobility 	totalCO2Emission 	689.59648751442
scalar RSUExampleScenario.node[4].veinsmobility 	startTime 	12.1
scalar RSUExampleScenario.node[4].veinsmobility 	totalTime 	266.7
scalar RSUExampleScenario.node[4].veinsmobility 	stopTime 	278.9
scalar RSUExampleScenario.node[4].veinsmobility 	minSpeed 	0.25651782065351
scalar RSUExampleScenario.node[4].veinsmobility 	maxSpeed 	13.999961162787
scalar RSUExampleScenario.node[4].veinsmobility 	totalDistance 	3409.3924428778
scalar RSUExampleScenario.node[4].veinsmobility 	totalCO2Emission 	692.07593091983
scalar RSUExampleScenario.node[5].veinsmobility 	startTime 	15.1
scalar RSUExampleScenario.node[5].veinsmobility 	totalTime 	267
scalar RSUExampleScenario.node[5].veinsmobility 	stopTime 	282.2
scalar RSUExampleScenario.node[5].veinsmobility 	minSpeed 	0.25523232839047
scalar RSUExampleScenario.node[5].veinsmobility 	maxSpeed 	13.999950650716
scalar RSUExampleScenario.node[5].veinsmobility 	totalDistance 	3409.7358703117
scalar RSUExampleScenario.node[5].veinsmobility 	totalCO2Emission 	691.92528782199
scalar RSUExampleScenario.node[6].veinsmobility 	startTime 	18.1
scalar RSUExampleScenario.node[6].veinsmobility 	totalTime 	267
scalar RSUExampleScenario.node[6].veinsmobility 	stopTime 	285.2
scalar RSUExampleScenario.node[6].veinsmobility 	minSpeed 	0.25784483345901
scalar RSUExampleScenario.node[6].veinsmobility 	maxSpeed 	13.999997353912
scalar RSUExampleScenario.node[6].veinsmobility 	totalDistance 	3413.362623699
scalar RSUExampleScenario.node[6].veinsmobility 	totalCO2Emission 	691.28476498386
scalar RSUExampleScenario.node[7].veinsmobility 	startTime 	21.1
scalar RSUExampleScenario.node[7].veinsmobility 	totalTime 	267
scalar RSUExampleScenario.node[7].veinsmobility 	stopTime 	288.2
scalar RSUExampleScenario.node[7].veinsmobility 	minSpeed 	0.25085471303435
scalar RSUExampleScenario.node[7].veinsmobility 	maxSpeed 	13.999927131252
scalar RSUExampleScenario.node[7].veinsmobility 	totalDistance 	3409.3223613004
scalar RSUExampleScenario.node[7].veinsmobility 	totalCO2Emission 	689.25884570383
scalar RSUExampleScenario.node[8].veinsmobility 	startTime 	24.1
scalar RSUExampleScenario.node[8].veinsmobility 	totalTime 	267.1
scalar RSUExampleScenario.node[8].veinsmobility 	stopTime 	291.3
scalar RSUExampleScenario.node[8].veinsmobility 	minSpeed 	0.25803885195777
scalar RSUExampleScenario.node[8].veinsmobility 	maxSpeed 	13.999951203228
scalar RSUExampleScenario.node[8].veinsmobility 	totalDistance 	3414.1025130341
scalar RSUExampleScenario.node[8].veinsmobility 	totalCO2Emission 	692.66590660617
scalar RSUExampleScenario.node[9].veinsmobility 	startTime 	27.1
scalar RSUExampleScenario.node[9].veinsmobility 	totalTime 	267.1
scalar RSUExampleScenario.node[9].veinsmobility 	stopTime 	294.3
scalar RSUExampleScenario.node[9].veinsmobility 	minSpeed 	0.255231801891
scalar RSUExampleScenario.node[9].veinsmobility 	maxSpeed 	13.999963912452
scalar RSUExampleScenario.node[9].veinsmobility 	totalDistance 	3409.7116463156
scalar RSUExampleScenario.node[9].veinsmobility 	totalCO2Emission 	693.04201399684
scalar RSUExampleScenario.node[10].veinsmobility 	startTime 	30.1
scalar RSUExampleScenario.node[10].veinsmobility 	totalTime 	267.1
scalar RSUExampleScenario.node[10].veinsmobility 	stopTime 	297.3
scalar RSUExampleScenario.node[10].veinsmobility 	minSpeed 	0.24889511759742
scalar RSUExampleScenario.node[10].veinsmobility 	maxSpeed 	13.999971379896
scalar RSUExampleScenario.node[10].veinsmobility 	totalDistance 	3413.675998749
scalar RSUExampleScenario.node[10].veinsmobility 	totalCO2Emission 	691.20531508784
scalar RSUExampleScenario.node[11].veinsmobility 	startTime 	33.1
scalar RSUExampleScenario.node[11].veinsmobility 	totalTime 	267.2
scalar RSUExampleScenario.node[11].veinsmobility 	stopTime 	300.4
scalar RSUExampleScenario.node[11].veinsmobility 	minSpeed 	0.25657125465921
scalar RSUExampleScenario.node[11].veinsmobility 	maxSpeed 	13.999950487935
scalar RSUExampleScenario.node[11].veinsmobility 	totalDistance 	3409.7422216806
scalar RSUExampleScenario.node[11].veinsmobility 	totalCO2Emission 	691.58736987458
scalar RSUExampleScenario.node[12].veinsmobility 	startTime 	36.1
scalar RSUExampleScenario.node[12].veinsmobility 	totalTime 	267.2
scalar RSUExampleScenario.node[12].veinsmobility 	stopTime 	303.4
scalar RSUExampleScenario.node[12].veinsmobility 	minSpeed 	0.2531920961726
scalar RSUExampleScenario.node[12].veinsmobility 	maxSpeed 	13.999902633345
scalar RSUExampleScenario.node[12].veinsmobility 	totalDistance 	3413.5083944027
scalar RSUExampleScenario.node[12].veinsmobility 	totalCO2Emission 	695.34674961136
scalar RSUExampleScenario.node[13].veinsmobility 	startTime 	39.1
scalar RSUExampleScenario.node[13].veinsmobility 	totalTime 	267.2
scalar RSUExampleScenario.node[13].veinsmobility 	stopTime 	306.4
scalar RSUExampleScenario.node[13].veinsmobility 	minSpeed 	0.2516950480775
scalar RSUExampleScenario.node[13].veinsmobility 	maxSpeed 	13.999952090231
scalar RSUExampleScenario.node[13].veinsmobility 	totalDistance 	3409.8986321604
scalar RSUExampleScenario.node[13].veinsmobility 	totalCO2Emission 	688.96838722471
scalar RSUExampleScenario.node[14].veinsmobility 	startTime 	42.1
scalar RSUExampleScenario.node[14].veinsmobility 	totalTime 	267.2
scalar RSUExampleScenario.node[14].veinsmobility 	stopTime 	309.4
scalar RSUExampleScenario.node[14].veinsmobility 	minSpeed 	0.2541778326435
scalar RSUExampleScenario.node[14].veinsmobility 	maxSpeed 	13.999914751314
scalar RSUExampleScenario.node[14].veinsmobility 	totalDistance 	3413.3790612047
scalar RSUExampleScenario.node[14].veinsmobility 	totalCO2Emission 	691.37975998146
scalar RSUExampleScenario.node[15].veinsmobility 	startTime 	45.1
scalar RSUExampleScenario.node[15].veinsmobility 	totalTime 	267.2
scalar RSUExampleScenario.node[15].veinsmobility 	stopTime 	312.4
scalar RSUExampleScenario.node[15].veinsmobility 	minSpeed 	0.25702296247007
scalar RSUExampleScenario.node[15].veinsmobility 	maxSpeed 	13.999930871194
scalar RSUExampleScenario.node[15].veinsmobility 	totalDistance 	3409.4335202703
scalar RSUExampleScenario.node[15].veinsmobility 	totalCO2Emission 	690.43808285494
scalar RSUExampleScenario.node[16].veinsmobility 	startTime 	48.1
scalar RSUExampleScenario.node[16].veinsmobility 	totalTime 	267.2
scalar RSUExampleScenario.node[16].veinsmobility 	stopTime 	315.4
scalar RSUExampleScenario.node[16].veinsmobility 	minSpeed 	0.25495791213098
scalar RSUExampleScenario.node[16].veinsmobility 	maxSpeed 	13.999944684019
scalar RSUExampleScenario.node[16].veinsmobility 	totalDistance 	3413.9468808198
scalar RSUExampleScenario.node[16].veinsmobility 	totalCO2Emission 	689.80278207145
scalar RSUExampleScenario.node[17].veinsmobility 	startTime 	51.1
scalar RSUExampleScenario.node[17].veinsmobility 	totalTime 	267.2
scalar RSUExampleScenario.node[17].veinsmobility 	stopTime 	318.4
scalar RSUExampleScenario.node[17].veinsmobility 	minSpeed 	0.25973334519914
scalar RSUExampleScenario.node[17].veinsmobility 	maxSpeed 	13.999869446862
scalar RSUExampleScenario.node[17].veinsmobility 	totalDistance 	3409.5258116172
scalar RSUExampleScenario.node[17].veinsmobility 	totalCO2Emission 	691.96390627299
scalar RSUExampleScenario.node[18].veinsmobility 	startTime 	54.1
scalar RSUExampleScenario.node[18].veinsmobility 	totalTime 	267.2
scalar RSUExampleScenario.node[18].veinsmobility 	stopTime 	321.4
scalar RSUExampleScenario.node[18].veinsmobility 	minSpeed 	0.25250244775275
scalar RSUExampleScenario.node[18].veinsmobility 	maxSpeed 	13.999959587671
scalar RSUExampleScenario.node[18].veinsmobility 	totalDistance 	3413.7135918801
scalar RSUExampleScenario.node[18].veinsmobility 	totalCO2Emission 	693.61522768643
scalar RSUExampleScenario.node[19].veinsmobility 	startTime 	57.1
scalar RSUExampleScenario.node[19].veinsmobility 	totalTime 	267.2
scalar RSUExampleScenario.node[19].veinsmobility 	stopTime 	324.4
scalar RSUExampleScenario.node[19].veinsmobility 	minSpeed 	0.24871515399148
scalar RSUExampleScenario.node[19].veinsmobility 	maxSpeed 	13.999863708597
scalar RSUExampleScenario.node[19].veinsmobility 	totalDistance 	3409.342261971
scalar RSUExampleScenario.node[19].veinsmobility 	totalCO2Emission 	693.78373545367
scalar RSUExampleScenario.node[20].veinsmobility 	startTime 	60.1
scalar RSUExampleScenario.node[20].veinsmobility 	totalTime 	267.2
scalar RSUExampleScenario.node[20].veinsmobility 	stopTime 	327.4
scalar RSUExampleScenario.node[20].veinsmobility 	minSpeed 	0.25676001754939
scalar RSUExampleScenario.node[20].veinsmobility 	maxSpeed 	13.999927601344
scalar RSUExampleScenario.node[20].veinsmobility 	totalDistance 	3413.7562419675
scalar RSUExampleScenario.node[20].veinsmobility 	totalCO2Emission 	693.31250158321
scalar RSUExampleScenario.node[21].veinsmobility 	startTime 	63.1
scalar RSUExampleScenario.node[21].veinsmobility 	totalTime 	267.2
scalar RSUExampleScenario.node[21].veinsmobility 	stopTime 	330.4
scalar RSUExampleScenario.node[21].veinsmobility 	minSpeed 	0.25494962463598
scalar RSUExampleScenario.node[21].veinsmobility 	maxSpeed 	13.999815068885
scalar RSUExampleScenario.node[21].veinsmobility 	totalDistance 	3409.742101857
scalar RSUExampleScenario.node[21].veinsmobility 	totalCO2Emission 	692.53255660779
scalar RSUExampleScenario.node[22].veinsmobility 	startTime 	66.1
scalar RSUExampleScenario.node[22].veinsmobility 	totalTime 	267.2
scalar RSUExampleScenario.node[22].veinsmobility 	stopTime 	333.4
scalar RSUExampleScenario.node[22].veinsmobility 	minSpeed 	0.25532987125381
scalar RSUExampleScenario.node[22].veinsmobility 	maxSpeed 	13.999984184192
scalar RSUExampleScenario.node[22].veinsmobility 	totalDistance 	3413.4877857743
scalar RSUExampleScenario.node[22].veinsmobility 	totalCO2Emission 	691.8362677023
scalar RSUExampleScenario.node[23].veinsmobility 	startTime 	69.1
scalar RSUExampleScenario.node[23].veinsmobility 	totalTime 	267.2
scalar RSUExampleScenario.node[23].veinsmobility 	stopTime 	336.4
scalar RSUExampleScenario.node[23].veinsmobility 	minSpeed 	0.25791196564934
scalar RSUExampleScenario.node[23].veinsmobility 	maxSpeed 	13.999959413419
scalar RSUExampleScenario.node[23].veinsmobility 	totalDistance 	3409.3411639894
scalar RSUExampleScenario.node[23].veinsmobility 	totalCO2Emission 	691.29244891324
scalar RSUExampleScenario.node[24].veinsmobility 	startTime 	72.1
scalar RSUExampleScenario.node[24].veinsmobility 	totalTime 	267.3
scalar RSUExampleScenario.node[24].veinsmobility 	stopTime 	339.5
scalar RSUExampleScenario.node[24].veinsmobility 	minSpeed 	0.25960371540068
scalar RSUExampleScenario.node[24].veinsmobility 	maxSpeed 	13.999968477439
scalar RSUExampleScenario.node[24].veinsmobility 	totalDistance 	3414.1047376741
scalar RSUExampleScenario.node[24].veinsmobility 	totalCO2Emission 	693.25748714798
scalar RSUExampleScenario.node[25].veinsmobility 	startTime 	75.1
scalar RSUExampleScenario.node[25].veinsmobility 	totalTime 	267.4
scalar RSUExampleScenario.node[25].veinsmobility 	stopTime 	342.6
scalar RSUExampleScenario.node[25].veinsmobility 	minSpeed 	0.25805299128615
scalar RSUExampleScenario.node[25].veinsmobility 	maxSpeed 	13.999931501888
scalar RSUExampleScenario.node[25].veinsmobility 	totalDistance 	3409.9799190698
scalar RSUExampleScenario.node[25].veinsmobility 	totalCO2Emission 	691.72934665564
scalar RSUExampleScenario.node[26].veinsmobility 	startTime 	78.1
scalar RSUExampleScenario.node[26].veinsmobility 	totalTime 	267.5
scalar RSUExampleScenario.node[26].veinsmobility 	stopTime 	345.7
scalar RSUExampleScenario.node[26].veinsmobility 	minSpeed 	0.25503349851118
scalar RSUExampleScenario.node[26].veinsmobility 	maxSpeed 	13.999972755152
scalar RSUExampleScenario.node[26].veinsmobility 	totalDistance 	3413.9360655754
scalar RSUExampleScenario.node[26].veinsmobility 	totalCO2Emission 	690.66210159785
scalar RSUExampleScenario.node[27].veinsmobility 	startTime 	81.1
scalar RSUExampleScenario.node[27].veinsmobility 	totalTime 	267.6
scalar RSUExampleScenario.node[27].veinsmobility 	stopTime 	348.8
scalar RSUExampleScenario.node[27].veinsmobility 	minSpeed 	0.25444941046834
scalar RSUExampleScenario.node[27].veinsmobility 	maxSpeed 	13.99998150036
scalar RSUExampleScenario.node[27].veinsmobility 	totalDistance 	3409.5591520031
scalar RSUExampleScenario.node[27].veinsmobility 	totalCO2Emission 	685.97080499555
scalar RSUExampleScenario.node[28].veinsmobility 	startTime 	84.1
scalar RSUExampleScenario.node[28].veinsmobility 	totalTime 	267.7
scalar RSUExampleScenario.node[28].veinsmobility 	stopTime 	351.9
scalar RSUExampleScenario.node[28].veinsmobility 	minSpeed 	0.24792316166125
scalar RSUExampleScenario.node[28].veinsmobility 	maxSpeed 	13.999997982669
scalar RSUExampleScenario.node[28].veinsmobility 	totalDistance 	3409.5169013631
scalar RSUExampleScenario.node[28].veinsmobility 	totalCO2Emission 	692.76860661444
scalar RSUExampleScenario.node[29].veinsmobility 	startTime 	87.1
scalar RSUExampleScenario.node[29].veinsmobility 	totalTime 	267.8
scalar RSUExampleScenario.node[29].veinsmobility 	stopTime 	355
scalar RSUExampleScenario.node[29].veinsmobility 	minSpeed 	0.25964246694627
scalar RSUExampleScenario.node[29].veinsmobility 	maxSpeed 	13.999775632487
scalar RSUExampleScenario.node[29].veinsmobility 	totalDistance 	3413.4671408432
scalar RSUExampleScenario.node[29].veinsmobility 	totalCO2Emission 	688.51508237503
scalar RSUExampleScenario.node[30].veinsmobility 	startTime 	90.1
scalar RSUExampleScenario.node[30].veinsmobility 	totalTime 	267.9
scalar RSUExampleScenario.node[30].veinsmobility 	stopTime 	358.1
scalar RSUExampleScenario.node[30].veinsmobility 	minSpeed 	0.25118390928349
scalar RSUExampleScenario.node[30].veinsmobility 	maxSpeed 	13.999942009116
scalar RSUExampleScenario.node[30].veinsmobility 	totalDistance 	3409.4012245858
scalar RSUExampleScenario.node[30].veinsmobility 	totalCO2Emission 	693.746519998
scalar RSUExampleScenario.node[31].veinsmobility 	startTime 	93.1
scalar RSUExampleScenario.node[31].veinsmobility 	totalTime 	268
scalar RSUExampleScenario.node[31].veinsmobility 	stopTime 	361.2
scalar RSUExampleScenario.node[31].veinsmobility 	minSpeed 	0.24779710738338
scalar RSUExampleScenario.node[31].veinsmobility 	maxSpeed 	13.999953036197
scalar RSUExampleScenario.node[31].veinsmobility 	totalDistance 	3413.5130632831
scalar RSUExampleScenario.node[31].veinsmobility 	totalCO2Emission 	692.83593428006
scalar RSUExampleScenario.node[32].veinsmobility 	startTime 	96.1
scalar RSUExampleScenario.node[32].veinsmobility 	totalTime 	268.1
scalar RSUExampleScenario.node[32].veinsmobility 	stopTime 	364.3
scalar RSUExampleScenario.node[32].veinsmobility 	minSpeed 	0.25060694161127
scalar RSUExampleScenario.node[32].veinsmobility 	maxSpeed 	13.99988505376
scalar RSUExampleScenario.node[32].veinsmobility 	totalDistance 	3409.455721903
scalar RSUExampleScenario.node[32].veinsmobility 	totalCO2Emission 	693.06499724431
scalar RSUExampleScenario.node[33].veinsmobility 	startTime 	99.1
scalar RSUExampleScenario.node[33].veinsmobility 	totalTime 	268.3
scalar RSUExampleScenario.node[33].veinsmobility 	stopTime 	367.5
scalar RSUExampleScenario.node[33].veinsmobility 	minSpeed 	0.25639046075102
scalar RSUExampleScenario.node[33].veinsmobility 	maxSpeed 	13.999964110707
scalar RSUExampleScenario.node[33].veinsmobility 	totalDistance 	3413.9066389628
scalar RSUExampleScenario.node[33].veinsmobility 	totalCO2Emission 	691.69725140442
scalar RSUExampleScenario.node[34].veinsmobility 	startTime 	102.1
scalar RSUExampleScenario.node[34].veinsmobility 	totalTime 	268.6
scalar RSUExampleScenario.node[34].veinsmobility 	stopTime 	370.8
scalar RSUExampleScenario.node[34].veinsmobility 	minSpeed 	0.25133755886089
scalar RSUExampleScenario.node[34].veinsmobility 	maxSpeed 	13.999990223623
scalar RSUExampleScenario.node[34].veinsmobility 	totalDistance 	3409.7238683921
scalar RSUExampleScenario.node[34].veinsmobility 	totalCO2Emission 	693.12030754253
scalar RSUExampleScenario.node[35].veinsmobility 	startTime 	105.1
scalar RSUExampleScenario.node[35].veinsmobility 	totalTime 	268.9
scalar RSUExampleScenario.node[35].veinsmobility 	stopTime 	374.1
scalar RSUExampleScenario.node[35].veinsmobility 	minSpeed 	0.25401064763847
scalar RSUExampleScenario.node[35].veinsmobility 	maxSpeed 	13.999985292242
scalar RSUExampleScenario.node[35].veinsmobility 	totalDistance 	3413.7399461471
scalar RSUExampleScenario.node[35].veinsmobility 	totalCO2Emission 	693.51457051333
scalar RSUExampleScenario.node[36].veinsmobility 	startTime 	108.1
scalar RSUExampleScenario.node[36].veinsmobility 	totalTime 	269.2
scalar RSUExampleScenario.node[36].veinsmobility 	stopTime 	377.4
scalar RSUExampleScenario.node[36].veinsmobility 	minSpeed 	0.25436781666521
scalar RSUExampleScenario.node[36].veinsmobility 	maxSpeed 	13.999960931267
scalar RSUExampleScenario.node[36].veinsmobility 	totalDistance 	3409.3348994839
scalar RSUExampleScenario.node[36].veinsmobility 	totalCO2Emission 	695.99699338965
scalar RSUExampleScenario.node[37].veinsmobility 	startTime 	111.1
scalar RSUExampleScenario.node[37].veinsmobility 	totalTime 	269.6
scalar RSUExampleScenario.node[37].veinsmobility 	stopTime 	380.8
scalar RSUExampleScenario.node[37].veinsmobility 	minSpeed 	0.25590968728857
scalar RSUExampleScenario.node[37].veinsmobility 	maxSpeed 	13.999940346465
scalar RSUExampleScenario.node[37].veinsmobility 	totalDistance 	3414.0083581114
scalar RSUExampleScenario.node[37].veinsmobility 	totalCO2Emission 	692.17907871537
scalar RSUExampleScenario.node[38].veinsmobility 	startTime 	114.1
scalar RSUExampleScenario.node[38].veinsmobility 	totalTime 	270.1
scalar RSUExampleScenario.node[38].veinsmobility 	stopTime 	384.3
scalar RSUExampleScenario.node[38].veinsmobility 	minSpeed 	0.25310735435388
scalar RSUExampleScenario.node[38].veinsmobility 	maxSpeed 	13.999999735125
scalar RSUExampleScenario.node[38].veinsmobility 	totalDistance 	3409.929663341
scalar RSUExampleScenario.node[38].veinsmobility 	totalCO2Emission 	693.95269978312
scalar RSUExampleScenario.node[39].veinsmobility 	startTime 	117.1
scalar RSUExampleScenario.node[39].veinsmobility 	totalTime 	270.7
scalar RSUExampleScenario.node[39].veinsmobility 	stopTime 	387.9
scalar RSUExampleScenario.node[39].veinsmobility 	minSpeed 	0.25462827892113
scalar RSUExampleScenario.node[39].veinsmobility 	maxSpeed 	13.999980120836
scalar RSUExampleScenario.node[39].veinsmobility 	totalDistance 	3414.045813852
scalar RSUExampleScenario.node[39].veinsmobility 	totalCO2Emission 	691.11215835516
scalar RSUExampleScenario.node[40].veinsmobility 	startTime 	120.1
scalar RSUExampleScenario.node[40].veinsmobility 	totalTime 	271.3
scalar RSUExampleScenario.node[40].veinsmobility 	stopTime 	391.5
scalar RSUExampleScenario.node[40].veinsmobility 	minSpeed 	0.25349667625455
scalar RSUExampleScenario.node[40].veinsmobility 	maxSpeed 	13.999865156072
scalar RSUExampleScenario.node[40].veinsmobility 	totalDistance 	3409.7545772164
scalar RSUExampleScenario.node[40].veinsmobility 	totalCO2Emission 	694.51384065561
scalar RSUExampleScenario.node[41].veinsmobility 	startTime 	123.1
scalar RSUExampleScenario.node[41].veinsmobility 	totalTime 	271.9
scalar RSUExampleScenario.node[41].veinsmobility 	stopTime 	395.1
scalar RSUExampleScenario.node[41].veinsmobility 	minSpeed 	0.25435502280621
scalar RSUExampleScenario.node[41].veinsmobility 	maxSpeed 	13.999930255301
scalar RSUExampleScenario.node[41].veinsmobility 	totalDistance 	3413.8371189766
scalar RSUExampleScenario.node[41].veinsmobility 	totalCO2Emission 	700.37692858694
scalar RSUExampleScenario.node[42].veinsmobility 	startTime 	126.1
scalar RSUExampleScenario.node[42].veinsmobility 	totalTime 	272.5
scalar RSUExampleScenario.node[42].veinsmobility 	stopTime 	398.7
scalar RSUExampleScenario.node[42].veinsmobility 	minSpeed 	0.25117778842524
scalar RSUExampleScenario.node[42].veinsmobility 	maxSpeed 	13.999980921666
scalar RSUExampleScenario.node[42].veinsmobility 	totalDistance 	3409.7948479257
scalar RSUExampleScenario.node[42].veinsmobility 	totalCO2Emission 	691.75917055252
scalar RSUExampleScenario.node[43].veinsmobility 	startTime 	129.1
scalar RSUExampleScenario.node[43].veinsmobility 	totalTime 	273.1
scalar RSUExampleScenario.node[43].veinsmobility 	stopTime 	402.3
scalar RSUExampleScenario.node[43].veinsmobility 	minSpeed 	0.25116085452656
scalar RSUExampleScenario.node[43].veinsmobility 	maxSpeed 	13.999856446672
scalar RSUExampleScenario.node[43].veinsmobility 	totalDistance 	3413.7836464041
scalar RSUExampleScenario.node[43].veinsmobility 	totalCO2Emission 	695.42265956557
scalar RSUExampleScenario.node[44].veinsmobility 	startTime 	132.1
scalar RSUExampleScenario.node[44].veinsmobility 	totalTime 	273.8
scalar RSUExampleScenario.node[44].veinsmobility 	stopTime 	406
scalar RSUExampleScenario.node[44].veinsmobility 	minSpeed 	0.25003669128544
scalar RSUExampleScenario.node[44].veinsmobility 	maxSpeed 	13.999996013495
scalar RSUExampleScenario.node[44].veinsmobility 	totalDistance 	3410.1150002765
scalar RSUExampleScenario.node[44].veinsmobility 	totalCO2Emission 	696.82051297706
scalar RSUExampleScenario.node[45].veinsmobility 	startTime 	135.1
scalar RSUExampleScenario.node[45].veinsmobility 	totalTime 	274.5
scalar RSUExampleScenario.node[45].veinsmobility 	stopTime 	409.7
scalar RSUExampleScenario.node[45].veinsmobility 	minSpeed 	0.25957502196659
scalar RSUExampleScenario.node[45].veinsmobility 	maxSpeed 	13.999979497618
scalar RSUExampleScenario.node[45].veinsmobility 	totalDistance 	3413.9468461617
scalar RSUExampleScenario.node[45].veinsmobility 	totalCO2Emission 	693.39511317005
scalar RSUExampleScenario.node[46].veinsmobility 	startTime 	138.1
scalar RSUExampleScenario.node[46].veinsmobility 	totalTime 	275.1
scalar RSUExampleScenario.node[46].veinsmobility 	stopTime 	413.3
scalar RSUExampleScenario.node[46].veinsmobility 	minSpeed 	0.25386756596714
scalar RSUExampleScenario.node[46].veinsmobility 	maxSpeed 	13.999983486121
scalar RSUExampleScenario.node[46].veinsmobility 	totalDistance 	3409.6140309625
scalar RSUExampleScenario.node[46].veinsmobility 	totalCO2Emission 	697.63652459725
scalar RSUExampleScenario.node[47].veinsmobility 	startTime 	141.1
scalar RSUExampleScenario.node[47].veinsmobility 	totalTime 	275.7
scalar RSUExampleScenario.node[47].veinsmobility 	stopTime 	416.9
scalar RSUExampleScenario.node[47].veinsmobility 	minSpeed 	0.25325940731028
scalar RSUExampleScenario.node[47].veinsmobility 	maxSpeed 	13.999721236834
scalar RSUExampleScenario.node[47].veinsmobility 	totalDistance 	3413.6105908477
scalar RSUExampleScenario.node[47].veinsmobility 	totalCO2Emission 	697.91652450393
scalar RSUExampleScenario.node[48].veinsmobility 	startTime 	144.1
scalar RSUExampleScenario.node[48].veinsmobility 	totalTime 	276.5
scalar RSUExampleScenario.node[48].veinsmobility 	stopTime 	420.7
scalar RSUExampleScenario.node[48].veinsmobility 	minSpeed 	0.25054024832486
scalar RSUExampleScenario.node[48].veinsmobility 	maxSpeed 	13.999992575112
scalar RSUExampleScenario.node[48].veinsmobility 	totalDistance 	3410.1258906812
scalar RSUExampleScenario.node[48].veinsmobility 	totalCO2Emission 	698.66454486882
scalar RSUExampleScenario.node[49].veinsmobility 	startTime 	147.1
scalar RSUExampleScenario.node[49].veinsmobility 	totalTime 	277.2
scalar RSUExampleScenario.node[49].veinsmobility 	stopTime 	424.4
scalar RSUExampleScenario.node[49].veinsmobility 	minSpeed 	0.24921742661507
scalar RSUExampleScenario.node[49].veinsmobility 	maxSpeed 	13.999838619556
scalar RSUExampleScenario.node[49].veinsmobility 	totalDistance 	3414.1294873049
scalar RSUExampleScenario.node[49].veinsmobility 	totalCO2Emission 	699.18265997538
scalar RSUExampleScenario.node[50].veinsmobility 	startTime 	150.1
scalar RSUExampleScenario.node[50].veinsmobility 	totalTime 	277.9
scalar RSUExampleScenario.node[50].veinsmobility 	stopTime 	428.1
scalar RSUExampleScenario.node[50].veinsmobility 	minSpeed 	0.2508245222976
scalar RSUExampleScenario.node[50].veinsmobility 	maxSpeed 	13.999989816095
scalar RSUExampleScenario.node[50].veinsmobility 	totalDistance 	3410.0672351954
scalar RSUExampleScenario.node[50].veinsmobility 	totalCO2Emission 	700.33857215608
scalar RSUExampleScenario.node[51].veinsmobility 	startTime 	153.1
scalar RSUExampleScenario.node[51].veinsmobility 	totalTime 	278.6
scalar RSUExampleScenario.node[51].veinsmobility 	stopTime 	431.8
scalar RSUExampleScenario.node[51].veinsmobility 	minSpeed 	0.25762251491915
scalar RSUExampleScenario.node[51].veinsmobility 	maxSpeed 	13.999952791238
scalar RSUExampleScenario.node[51].veinsmobility 	totalDistance 	3413.9686699215
scalar RSUExampleScenario.node[51].veinsmobility 	totalCO2Emission 	700.69952896179
scalar RSUExampleScenario.node[52].veinsmobility 	startTime 	156.1
scalar RSUExampleScenario.node[52].veinsmobility 	totalTime 	279.4
scalar RSUExampleScenario.node[52].veinsmobility 	stopTime 	435.6
scalar RSUExampleScenario.node[52].veinsmobility 	minSpeed 	0.24934037770424
scalar RSUExampleScenario.node[52].veinsmobility 	maxSpeed 	13.999962758848
scalar RSUExampleScenario.node[52].veinsmobility 	totalDistance 	3409.722685217
scalar RSUExampleScenario.node[52].veinsmobility 	totalCO2Emission 	698.36329093173
scalar RSUExampleScenario.node[53].veinsmobility 	startTime 	159.1
scalar RSUExampleScenario.node[53].veinsmobility 	totalTime 	280.1
scalar RSUExampleScenario.node[53].veinsmobility 	stopTime 	439.3
scalar RSUExampleScenario.node[53].veinsmobility 	minSpeed 	0.25750182673102
scalar RSUExampleScenario.node[53].veinsmobility 	maxSpeed 	13.99985257461
scalar RSUExampleScenario.node[53].veinsmobility 	totalDistance 	3413.6514029917
scalar RSUExampleScenario.node[53].veinsmobility 	totalCO2Emission 	700.4758208501
scalar RSUExampleScenario.node[54].veinsmobility 	startTime 	162.1
scalar RSUExampleScenario.node[54].veinsmobility 	totalTime 	280.8
scalar RSUExampleScenario.node[54].veinsmobility 	stopTime 	443
scalar RSUExampleScenario.node[54].veinsmobility 	minSpeed 	0.24927290905803
scalar RSUExampleScenario.node[54].veinsmobility 	maxSpeed 	13.999986746619
scalar RSUExampleScenario.node[54].veinsmobility 	totalDistance 	3409.6677755429
scalar RSUExampleScenario.node[54].veinsmobility 	totalCO2Emission 	704.51606960814
scalar RSUExampleScenario.node[55].veinsmobility 	startTime 	165.1
scalar RSUExampleScenario.node[55].veinsmobility 	totalTime 	281.5
scalar RSUExampleScenario.node[55].veinsmobility 	stopTime 	446.7
scalar RSUExampleScenario.node[55].veinsmobility 	minSpeed 	0.25749075502949
scalar RSUExampleScenario.node[55].veinsmobility 	maxSpeed 	13.999992262172
scalar RSUExampleScenario.node[55].veinsmobility 	totalDistance 	3413.7925126894
scalar RSUExampleScenario.node[55].veinsmobility 	totalCO2Emission 	705.47122765264
scalar RSUExampleScenario.node[56].veinsmobility 	startTime 	168.1
scalar RSUExampleScenario.node[56].veinsmobility 	totalTime 	282.2
scalar RSUExampleScenario.node[56].veinsmobility 	stopTime 	450.4
scalar RSUExampleScenario.node[56].veinsmobility 	minSpeed 	0.25831683595595
scalar RSUExampleScenario.node[56].veinsmobility 	maxSpeed 	13.999986196922
scalar RSUExampleScenario.node[56].veinsmobility 	totalDistance 	3409.926013769
scalar RSUExampleScenario.node[56].veinsmobility 	totalCO2Emission 	701.92176135845
scalar RSUExampleScenario.node[57].veinsmobility 	startTime 	171.1
scalar RSUExampleScenario.node[57].veinsmobility 	totalTime 	282.9
scalar RSUExampleScenario.node[57].veinsmobility 	stopTime 	454.1
scalar RSUExampleScenario.node[57].veinsmobility 	minSpeed 	0.25573102775449
scalar RSUExampleScenario.node[57].veinsmobility 	maxSpeed 	13.999963929674
scalar RSUExampleScenario.node[57].veinsmobility 	totalDistance 	3414.1235689372
scalar RSUExampleScenario.node[57].veinsmobility 	totalCO2Emission 	708.87473088427
scalar RSUExampleScenario.node[58].veinsmobility 	startTime 	174.1
scalar RSUExampleScenario.node[58].veinsmobility 	totalTime 	283.7
scalar RSUExampleScenario.node[58].veinsmobility 	stopTime 	457.9
scalar RSUExampleScenario.node[58].veinsmobility 	minSpeed 	0.2491549119933
scalar RSUExampleScenario.node[58].veinsmobility 	maxSpeed 	13.99991731483
scalar RSUExampleScenario.node[58].veinsmobility 	totalDistance 	3410.2023649436
scalar RSUExampleScenario.node[58].veinsmobility 	totalCO2Emission 	704.08551319373
scalar RSUExampleScenario.node[59].veinsmobility 	startTime 	177.1
scalar RSUExampleScenario.node[59].veinsmobility 	totalTime 	284.4
scalar RSUExampleScenario.node[59].veinsmobility 	stopTime 	461.6
scalar RSUExampleScenario.node[59].veinsmobility 	minSpeed 	0.24993510790356
scalar RSUExampleScenario.node[59].veinsmobility 	maxSpeed 	13.999991619431
scalar RSUExampleScenario.node[59].veinsmobility 	totalDistance 	3414.2459193151
scalar RSUExampleScenario.node[59].veinsmobility 	totalCO2Emission 	704.00857871299
scalar RSUExampleScenario.node[60].veinsmobility 	startTime 	180.1
scalar RSUExampleScenario.node[60].veinsmobility 	totalTime 	285.1
scalar RSUExampleScenario.node[60].veinsmobility 	stopTime 	465.3
scalar RSUExampleScenario.node[60].veinsmobility 	minSpeed 	0.24922259115335
scalar RSUExampleScenario.node[60].veinsmobility 	maxSpeed 	13.999933863063
scalar RSUExampleScenario.node[60].veinsmobility 	totalDistance 	3409.8448755777
scalar RSUExampleScenario.node[60].veinsmobility 	totalCO2Emission 	706.60586559034
scalar RSUExampleScenario.node[61].veinsmobility 	startTime 	183.1
scalar RSUExampleScenario.node[61].veinsmobility 	totalTime 	285.8
scalar RSUExampleScenario.node[61].veinsmobility 	stopTime 	469
scalar RSUExampleScenario.node[61].veinsmobility 	minSpeed 	0.25984759660088
scalar RSUExampleScenario.node[61].veinsmobility 	maxSpeed 	13.999947557843
scalar RSUExampleScenario.node[61].veinsmobility 	totalDistance 	3413.8369156055
scalar RSUExampleScenario.node[61].veinsmobility 	totalCO2Emission 	704.58218689345
scalar RSUExampleScenario.node[62].veinsmobility 	startTime 	186.1
scalar RSUExampleScenario.node[62].veinsmobility 	totalTime 	286.4
scalar RSUExampleScenario.node[62].veinsmobility 	stopTime 	472.6
scalar RSUExampleScenario.node[62].veinsmobility 	minSpeed 	0.2481320149377
scalar RSUExampleScenario.node[62].veinsmobility 	maxSpeed 	13.999960187795
scalar RSUExampleScenario.node[62].veinsmobility 	totalDistance 	3409.6288958433
scalar RSUExampleScenario.node[62].veinsmobility 	totalCO2Emission 	706.29911127422
scalar RSUExampleScenario.node[63].veinsmobility 	startTime 	189.1
scalar RSUExampleScenario.node[63].veinsmobility 	totalTime 	287
scalar RSUExampleScenario.node[63].veinsmobility 	stopTime 	476.2
scalar RSUExampleScenario.node[63].veinsmobility 	minSpeed 	0.25640872579324
scalar RSUExampleScenario.node[63].veinsmobility 	maxSpeed 	13.999998438142
scalar RSUExampleScenario.node[63].veinsmobility 	totalDistance 	3414.0471053859
scalar RSUExampleScenario.node[63].veinsmobility 	totalCO2Emission 	712.14195121382
scalar RSUExampleScenario.node[64].veinsmobility 	startTime 	192.1
scalar RSUExampleScenario.node[64].veinsmobility 	totalTime 	287.6
scalar RSUExampleScenario.node[64].veinsmobility 	stopTime 	479.8
scalar RSUExampleScenario.node[64].veinsmobility 	minSpeed 	0.25471697557275
scalar RSUExampleScenario.node[64].veinsmobility 	maxSpeed 	13.999828548762
scalar RSUExampleScenario.node[64].veinsmobility 	totalDistance 	3409.523490901
scalar RSUExampleScenario.node[64].veinsmobility 	totalCO2Emission 	711.67456310777
scalar RSUExampleScenario.node[65].veinsmobility 	startTime 	195.1
scalar RSUExampleScenario.node[65].veinsmobility 	totalTime 	288.3
scalar RSUExampleScenario.node[65].veinsmobility 	stopTime 	483.5
scalar RSUExampleScenario.node[65].veinsmobility 	minSpeed 	0.25156685181917
scalar RSUExampleScenario.node[65].veinsmobility 	maxSpeed 	13.999926348976
scalar RSUExampleScenario.node[65].veinsmobility 	totalDistance 	3414.2665377819
scalar RSUExampleScenario.node[65].veinsmobility 	totalCO2Emission 	705.49626756727
scalar RSUExampleScenario.node[66].veinsmobility 	startTime 	198.1
scalar RSUExampleScenario.node[66].veinsmobility 	totalTime 	288.9
scalar RSUExampleScenario.node[66].veinsmobility 	stopTime 	487.1
scalar RSUExampleScenario.node[66].veinsmobility 	minSpeed 	0.25748060253332
scalar RSUExampleScenario.node[66].veinsmobility 	maxSpeed 	13.999934398686
scalar RSUExampleScenario.node[66].veinsmobility 	totalDistance 	3409.4169065295
scalar RSUExampleScenario.node[66].veinsmobility 	totalCO2Emission 	711.33951229765
scalar RSUExampleScenario.node[67].veinsmobility 	startTime 	201.1
scalar RSUExampleScenario.node[67].veinsmobility 	totalTime 	289.6
scalar RSUExampleScenario.node[67].veinsmobility 	stopTime 	490.8
scalar RSUExampleScenario.node[67].veinsmobility 	minSpeed 	0.24977536621643
scalar RSUExampleScenario.node[67].veinsmobility 	maxSpeed 	13.999979405059
scalar RSUExampleScenario.node[67].veinsmobility 	totalDistance 	3414.1728894052
scalar RSUExampleScenario.node[67].veinsmobility 	totalCO2Emission 	713.88521100219
scalar RSUExampleScenario.node[68].veinsmobility 	startTime 	204.1
scalar RSUExampleScenario.node[68].veinsmobility 	totalTime 	290.3
scalar RSUExampleScenario.node[68].veinsmobility 	stopTime 	494.5
scalar RSUExampleScenario.node[68].veinsmobility 	minSpeed 	0.2530299114536
scalar RSUExampleScenario.node[68].veinsmobility 	maxSpeed 	13.999844004503
scalar RSUExampleScenario.node[68].veinsmobility 	totalDistance 	3409.6662460931
scalar RSUExampleScenario.node[68].veinsmobility 	totalCO2Emission 	715.72728702626
scalar RSUExampleScenario.node[69].veinsmobility 	startTime 	207.1
scalar RSUExampleScenario.node[69].veinsmobility 	totalTime 	291
scalar RSUExampleScenario.node[69].veinsmobility 	stopTime 	498.2
scalar RSUExampleScenario.node[69].veinsmobility 	minSpeed 	0.25134184534312
scalar RSUExampleScenario.node[69].veinsmobility 	maxSpeed 	13.999734076059
scalar RSUExampleScenario.node[69].veinsmobility 	totalDistance 	3413.894118538
scalar RSUExampleScenario.node[69].veinsmobility 	totalCO2Emission 	710.77939869293
scalar RSUExampleScenario.node[70].veinsmobility 	startTime 	210.1
scalar RSUExampleScenario.node[70].veinsmobility 	totalTime 	291.8
scalar RSUExampleScenario.node[70].veinsmobility 	stopTime 	502
scalar RSUExampleScenario.node[70].veinsmobility 	minSpeed 	0.2587846837847
scalar RSUExampleScenario.node[70].veinsmobility 	maxSpeed 	13.999970759705
scalar RSUExampleScenario.node[70].veinsmobility 	totalDistance 	3410.118763861
scalar RSUExampleScenario.node[70].veinsmobility 	totalCO2Emission 	713.29844563512
scalar RSUExampleScenario.node[71].veinsmobility 	startTime 	213.1
scalar RSUExampleScenario.node[71].veinsmobility 	totalTime 	292.5
scalar RSUExampleScenario.node[71].veinsmobility 	stopTime 	505.7
scalar RSUExampleScenario.node[71].veinsmobility 	minSpeed 	0.25211722012958
scalar RSUExampleScenario.node[71].veinsmobility 	maxSpeed 	13.999958142496
scalar RSUExampleScenario.node[71].veinsmobility 	totalDistance 	3413.7329914507
scalar RSUExampleScenario.node[71].veinsmobility 	totalCO2Emission 	712.68632087121
scalar RSUExampleScenario.node[72].veinsmobility 	startTime 	216.1
scalar RSUExampleScenario.node[72].veinsmobility 	totalTime 	293.1
scalar RSUExampleScenario.node[72].veinsmobility 	stopTime 	509.3
scalar RSUExampleScenario.node[72].veinsmobility 	minSpeed 	0.25299248888134
scalar RSUExampleScenario.node[72].veinsmobility 	maxSpeed 	13.999955801298
scalar RSUExampleScenario.node[72].veinsmobility 	totalDistance 	3409.4434133463
scalar RSUExampleScenario.node[72].veinsmobility 	totalCO2Emission 	712.21151738912
scalar RSUExampleScenario.node[73].veinsmobility 	startTime 	219.1
scalar RSUExampleScenario.node[73].veinsmobility 	totalTime 	293.8
scalar RSUExampleScenario.node[73].veinsmobility 	stopTime 	513
scalar RSUExampleScenario.node[73].veinsmobility 	minSpeed 	0.25921129011153
scalar RSUExampleScenario.node[73].veinsmobility 	maxSpeed 	13.999984403967
scalar RSUExampleScenario.node[73].veinsmobility 	totalDistance 	3413.8468054269
scalar RSUExampleScenario.node[73].veinsmobility 	totalCO2Emission 	720.32633056178
scalar RSUExampleScenario.node[74].veinsmobility 	startTime 	222.1
scalar RSUExampleScenario.node[74].veinsmobility 	totalTime 	294.4
scalar RSUExampleScenario.node[74].veinsmobility 	stopTime 	516.6
scalar RSUExampleScenario.node[74].veinsmobility 	minSpeed 	0.25552231903491
scalar RSUExampleScenario.node[74].veinsmobility 	maxSpeed 	13.999946840431
scalar RSUExampleScenario.node[74].veinsmobility 	totalDistance 	3409.4261884903
scalar RSUExampleScenario.node[74].veinsmobility 	totalCO2Emission 	714.91255732965
scalar RSUExampleScenario.node[75].veinsmobility 	startTime 	225.1
scalar RSUExampleScenario.node[75].veinsmobility 	totalTime 	295.1
scalar RSUExampleScenario.node[75].veinsmobility 	stopTime 	520.3
scalar RSUExampleScenario.node[75].veinsmobility 	minSpeed 	0.25917787029548
scalar RSUExampleScenario.node[75].veinsmobility 	maxSpeed 	13.999966730734
scalar RSUExampleScenario.node[75].veinsmobility 	totalDistance 	3413.975571767
scalar RSUExampleScenario.node[75].veinsmobility 	totalCO2Emission 	719.82520819825
scalar RSUExampleScenario.node[76].veinsmobility 	startTime 	228.1
scalar RSUExampleScenario.node[76].veinsmobility 	totalTime 	295.7
scalar RSUExampleScenario.node[76].veinsmobility 	stopTime 	523.9
scalar RSUExampleScenario.node[76].veinsmobility 	minSpeed 	0.24981005855906
scalar RSUExampleScenario.node[76].veinsmobility 	maxSpeed 	13.99997468059
scalar RSUExampleScenario.node[76].veinsmobility 	totalDistance 	3409.4925907721
scalar RSUExampleScenario.node[76].veinsmobility 	totalCO2Emission 	716.55657110744
scalar RSUExampleScenario.node[77].veinsmobility 	startTime 	231.1
scalar RSUExampleScenario.node[77].veinsmobility 	totalTime 	296.3
scalar RSUExampleScenario.node[77].veinsmobility 	stopTime 	527.5
scalar RSUExampleScenario.node[77].veinsmobility 	minSpeed 	0.2474523620836
scalar RSUExampleScenario.node[77].veinsmobility 	maxSpeed 	13.999961738484
scalar RSUExampleScenario.node[77].veinsmobility 	totalDistance 	3413.8800693626
scalar RSUExampleScenario.node[77].veinsmobility 	totalCO2Emission 	716.68083879216
scalar RSUExampleScenario.node[78].veinsmobility 	startTime 	234.1
scalar RSUExampleScenario.node[78].veinsmobility 	totalTime 	297
scalar RSUExampleScenario.node[78].veinsmobility 	stopTime 	531.2
scalar RSUExampleScenario.node[78].veinsmobility 	minSpeed 	0.25942672205251
scalar RSUExampleScenario.node[78].veinsmobility 	maxSpeed 	13.999987020271
scalar RSUExampleScenario.node[78].veinsmobility 	totalDistance 	3409.6850152647
scalar RSUExampleScenario.node[78].veinsmobility 	totalCO2Emission 	721.20002770676
scalar RSUExampleScenario.node[79].veinsmobility 	startTime 	237.1
scalar RSUExampleScenario.node[79].veinsmobility 	totalTime 	297.7
scalar RSUExampleScenario.node[79].veinsmobility 	stopTime 	534.9
scalar RSUExampleScenario.node[79].veinsmobility 	minSpeed 	0.25006435881648
scalar RSUExampleScenario.node[79].veinsmobility 	maxSpeed 	13.999964186498
scalar RSUExampleScenario.node[79].veinsmobility 	totalDistance 	3413.5947221041
scalar RSUExampleScenario.node[79].veinsmobility 	totalCO2Emission 	717.36774075241
scalar RSUExampleScenario.node[80].veinsmobility 	startTime 	240.1
scalar RSUExampleScenario.node[80].veinsmobility 	totalTime 	298.4
scalar RSUExampleScenario.node[80].veinsmobility 	stopTime 	538.6
scalar RSUExampleScenario.node[80].veinsmobility 	minSpeed 	0.25867066821898
scalar RSUExampleScenario.node[80].veinsmobility 	maxSpeed 	13.999839408824
scalar RSUExampleScenario.node[80].veinsmobility 	totalDistance 	3409.7702279474
scalar RSUExampleScenario.node[80].veinsmobility 	totalCO2Emission 	718.62956313178
scalar RSUExampleScenario.node[81].veinsmobility 	startTime 	243.1
scalar RSUExampleScenario.node[81].veinsmobility 	totalTime 	299.1
scalar RSUExampleScenario.node[81].veinsmobility 	stopTime 	542.3
scalar RSUExampleScenario.node[81].veinsmobility 	minSpeed 	0.25870067749009
scalar RSUExampleScenario.node[81].veinsmobility 	maxSpeed 	13.999798063515
scalar RSUExampleScenario.node[81].veinsmobility 	totalDistance 	3410.1919148587
scalar RSUExampleScenario.node[81].veinsmobility 	totalCO2Emission 	720.78412506832
scalar RSUExampleScenario.node[82].veinsmobility 	startTime 	246.1
scalar RSUExampleScenario.node[82].veinsmobility 	totalTime 	299.8
scalar RSUExampleScenario.node[82].veinsmobility 	stopTime 	546
scalar RSUExampleScenario.node[82].veinsmobility 	minSpeed 	0.25521002918598
scalar RSUExampleScenario.node[82].veinsmobility 	maxSpeed 	13.99997972826
scalar RSUExampleScenario.node[82].veinsmobility 	totalDistance 	3413.8641233477
scalar RSUExampleScenario.node[82].veinsmobility 	totalCO2Emission 	716.41898225193
scalar RSUExampleScenario.node[83].veinsmobility 	startTime 	249.1
scalar RSUExampleScenario.node[83].veinsmobility 	totalTime 	300.5
scalar RSUExampleScenario.node[83].veinsmobility 	stopTime 	549.7
scalar RSUExampleScenario.node[83].veinsmobility 	minSpeed 	0.24818428753666
scalar RSUExampleScenario.node[83].veinsmobility 	maxSpeed 	13.999932635243
scalar RSUExampleScenario.node[83].veinsmobility 	totalDistance 	3409.6070866148
scalar RSUExampleScenario.node[83].veinsmobility 	totalCO2Emission 	718.99109815735
scalar RSUExampleScenario.node[84].veinsmobility 	startTime 	252.1
scalar RSUExampleScenario.node[84].veinsmobility 	totalTime 	301.2
scalar RSUExampleScenario.node[84].veinsmobility 	stopTime 	553.4
scalar RSUExampleScenario.node[84].veinsmobility 	minSpeed 	0.25659234841703
scalar RSUExampleScenario.node[84].veinsmobility 	maxSpeed 	13.999944171309
scalar RSUExampleScenario.node[84].veinsmobility 	totalDistance 	3413.6234987484
scalar RSUExampleScenario.node[84].veinsmobility 	totalCO2Emission 	722.67356977272
scalar RSUExampleScenario.node[85].veinsmobility 	startTime 	255.1
scalar RSUExampleScenario.node[85].veinsmobility 	totalTime 	302
scalar RSUExampleScenario.node[85].veinsmobility 	stopTime 	557.2
scalar RSUExampleScenario.node[85].veinsmobility 	minSpeed 	0.25016515303333
scalar RSUExampleScenario.node[85].veinsmobility 	maxSpeed 	13.99999684535
scalar RSUExampleScenario.node[85].veinsmobility 	totalDistance 	3410.1152408332
scalar RSUExampleScenario.node[85].veinsmobility 	totalCO2Emission 	722.13873589528
scalar RSUExampleScenario.node[86].veinsmobility 	startTime 	258.1
scalar RSUExampleScenario.node[86].veinsmobility 	totalTime 	302.7
scalar RSUExampleScenario.node[86].veinsmobility 	stopTime 	560.9
scalar RSUExampleScenario.node[86].veinsmobility 	minSpeed 	0.25198064045701
scalar RSUExampleScenario.node[86].veinsmobility 	maxSpeed 	13.999846610213
scalar RSUExampleScenario.node[86].veinsmobility 	totalDistance 	3413.7860323613
scalar RSUExampleScenario.node[86].veinsmobility 	totalCO2Emission 	719.93895141137
scalar RSUExampleScenario.node[87].veinsmobility 	startTime 	261.1
scalar RSUExampleScenario.node[87].veinsmobility 	totalTime 	303.3
scalar RSUExampleScenario.node[87].veinsmobility 	stopTime 	564.5
scalar RSUExampleScenario.node[87].veinsmobility 	minSpeed 	0.24879393351683
scalar RSUExampleScenario.node[87].veinsmobility 	maxSpeed 	13.999947919394
scalar RSUExampleScenario.node[87].veinsmobility 	totalDistance 	3409.6978332436
scalar RSUExampleScenario.node[87].veinsmobility 	totalCO2Emission 	723.60082931519
scalar RSUExampleScenario.node[88].veinsmobility 	startTime 	264.1
scalar RSUExampleScenario.node[88].veinsmobility 	totalTime 	304
scalar RSUExampleScenario.node[88].veinsmobility 	stopTime 	568.2
scalar RSUExampleScenario.node[88].veinsmobility 	minSpeed 	0.25366210899455
scalar RSUExampleScenario.node[88].veinsmobility 	maxSpeed 	13.999984657613
scalar RSUExampleScenario.node[88].veinsmobility 	totalDistance 	3413.8225272783
scalar RSUExampleScenario.node[88].veinsmobility 	totalCO2Emission 	727.16421225122
scalar RSUExampleScenario.node[89].veinsmobility 	startTime 	267.1
scalar RSUExampleScenario.node[89].veinsmobility 	totalTime 	304.8
scalar RSUExampleScenario.node[89].veinsmobility 	stopTime 	572
scalar RSUExampleScenario.node[89].veinsmobility 	minSpeed 	0.25655287945061
scalar RSUExampleScenario.node[89].veinsmobility 	maxSpeed 	13.999964942532
scalar RSUExampleScenario.node[89].veinsmobility 	totalDistance 	3410.1159785937
scalar RSUExampleScenario.node[89].veinsmobility 	totalCO2Emission 	728.31878370734
scalar RSUExampleScenario.node[90].veinsmobility 	startTime 	270.1
scalar RSUExampleScenario.node[90].veinsmobility 	totalTime 	305.4
scalar RSUExampleScenario.node[90].veinsmobility 	stopTime 	575.6
scalar RSUExampleScenario.node[90].veinsmobility 	minSpeed 	0.24825832646317
scalar RSUExampleScenario.node[90].veinsmobility 	maxSpeed 	13.999966475393
scalar RSUExampleScenario.node[90].veinsmobility 	totalDistance 	3413.9611715835
scalar RSUExampleScenario.node[90].veinsmobility 	totalCO2Emission 	727.27621757583
scalar RSUExampleScenario.node[91].veinsmobility 	startTime 	273.1
scalar RSUExampleScenario.node[91].veinsmobility 	totalTime 	306.1
scalar RSUExampleScenario.node[91].veinsmobility 	stopTime 	579.3
scalar RSUExampleScenario.node[91].veinsmobility 	minSpeed 	0.25442061391124
scalar RSUExampleScenario.node[91].veinsmobility 	maxSpeed 	13.999997619332
scalar RSUExampleScenario.node[91].veinsmobility 	totalDistance 	3409.966335723
scalar RSUExampleScenario.node[91].veinsmobility 	totalCO2Emission 	731.19787154042
scalar RSUExampleScenario.node[92].veinsmobility 	startTime 	276.1
scalar RSUExampleScenario.node[92].veinsmobility 	totalTime 	306.8
scalar RSUExampleScenario.node[92].veinsmobility 	stopTime 	583
scalar RSUExampleScenario.node[92].veinsmobility 	minSpeed 	0.24965733422246
scalar RSUExampleScenario.node[92].veinsmobility 	maxSpeed 	13.999871535413
scalar RSUExampleScenario.node[92].veinsmobility 	totalDistance 	3414.055638862
scalar RSUExampleScenario.node[92].veinsmobility 	totalCO2Emission 	724.42199648712
scalar RSUExampleScenario.node[93].veinsmobility 	startTime 	279.1
scalar RSUExampleScenario.node[93].veinsmobility 	totalTime 	307.5
scalar RSUExampleScenario.node[93].veinsmobility 	stopTime 	586.7
scalar RSUExampleScenario.node[93].veinsmobility 	minSpeed 	0.25401856880309
scalar RSUExampleScenario.node[93].veinsmobility 	maxSpeed 	13.999974403637
scalar RSUExampleScenario.node[93].veinsmobility 	totalDistance 	3409.7319827715
scalar RSUExampleScenario.node[93].veinsmobility 	totalCO2Emission 	731.0515485287
scalar RSUExampleScenario.node[94].veinsmobility 	startTime 	282.1
scalar RSUExampleScenario.node[94].veinsmobility 	totalTime 	308.2
scalar RSUExampleScenario.node[94].veinsmobility 	stopTime 	590.4
scalar RSUExampleScenario.node[94].veinsmobility 	minSpeed 	0.25770569832111
scalar RSUExampleScenario.node[94].veinsmobility 	maxSpeed 	13.999947532236
scalar RSUExampleScenario.node[94].veinsmobility 	totalDistance 	3413.7760462034
scalar RSUExampleScenario.node[94].veinsmobility 	totalCO2Emission 	731.51894165033
scalar RSUExampleScenario.node[95].veinsmobility 	startTime 	285.1
scalar RSUExampleScenario.node[95].veinsmobility 	totalTime 	308.9
scalar RSUExampleScenario.node[95].veinsmobility 	stopTime 	594.1
scalar RSUExampleScenario.node[95].veinsmobility 	minSpeed 	0.24776175280451
scalar RSUExampleScenario.node[95].veinsmobility 	maxSpeed 	13.999881289271
scalar RSUExampleScenario.node[95].veinsmobility 	totalDistance 	3409.7633152183
scalar RSUExampleScenario.node[95].veinsmobility 	totalCO2Emission 	736.09461902336
scalar RSUExampleScenario.node[96].veinsmobility 	startTime 	288.1
scalar RSUExampleScenario.node[96].veinsmobility 	totalTime 	309.5
scalar RSUExampleScenario.node[96].veinsmobility 	stopTime 	597.7
scalar RSUExampleScenario.node[96].veinsmobility 	minSpeed 	0.24791819966421
scalar RSUExampleScenario.node[96].veinsmobility 	maxSpeed 	13.999814748771
scalar RSUExampleScenario.node[96].veinsmobility 	totalDistance 	3409.753647571
scalar RSUExampleScenario.node[96].veinsmobility 	totalCO2Emission 	732.56174205933
scalar RSUExampleScenario.node[97].veinsmobility 	startTime 	291.1
scalar RSUExampleScenario.node[97].veinsmobility 	totalTime 	310.1
scalar RSUExampleScenario.node[97].veinsmobility 	stopTime 	601.3
scalar RSUExampleScenario.node[97].veinsmobility 	minSpeed 	0.25011737624393
scalar RSUExampleScenario.node[97].veinsmobility 	maxSpeed 	13.999750173783
scalar RSUExampleScenario.node[97].veinsmobility 	totalDistance 	3413.8857165782
scalar RSUExampleScenario.node[97].veinsmobility 	totalCO2Emission 	729.79215254604
scalar RSUExampleScenario.node[98].veinsmobility 	startTime 	294.1
scalar RSUExampleScenario.node[98].veinsmobility 	totalTime 	310.8
scalar RSUExampleScenario.node[98].veinsmobility 	stopTime 	605
scalar RSUExampleScenario.node[98].veinsmobility 	minSpeed 	0.24955262079812
scalar RSUExampleScenario.node[98].veinsmobility 	maxSpeed 	13.9999096751
scalar RSUExampleScenario.node[98].veinsmobility 	totalDistance 	3410.1374760202
scalar RSUExampleScenario.node[98].veinsmobility 	totalCO2Emission 	732.92588220548
scalar RSUExampleScenario.node[99].veinsmobility 	startTime 	297.1
scalar RSUExampleScenario.node[99].veinsmobility 	totalTime 	311.5
scalar RSUExampleScenario.node[99].veinsmobility 	stopTime 	608.7
scalar RSUExampleScenario.node[99].veinsmobility 	minSpeed 	0.25445458472567
scalar RSUExampleScenario.node[99].veinsmobility 	maxSpeed 	13.999891877072
scalar RSUExampleScenario.node[99].veinsmobility 	totalDistance 	3413.9074456118
scalar RSUExampleScenario.node[99].veinsmobility 	totalCO2Emission 	729.38214759509
scalar RSUExampleScenario.node[100].veinsmobility 	startTime 	300.1
scalar RSUExampleScenario.node[100].veinsmobility 	totalTime 	312.2
scalar RSUExampleScenario.node[100].veinsmobility 	stopTime 	612.4
scalar RSUExampleScenario.node[100].veinsmobility 	minSpeed 	0.24766461245995
scalar RSUExampleScenario.node[100].veinsmobility 	maxSpeed 	13.999766975269
scalar RSUExampleScenario.node[100].veinsmobility 	totalDistance 	3409.6509053087
scalar RSUExampleScenario.node[100].veinsmobility 	totalCO2Emission 	730.71513377359
scalar RSUExampleScenario.node[101].veinsmobility 	startTime 	303.1
scalar RSUExampleScenario.node[101].veinsmobility 	totalTime 	312.9
scalar RSUExampleScenario.node[101].veinsmobility 	stopTime 	616.1
scalar RSUExampleScenario.node[101].veinsmobility 	minSpeed 	0.25935955330753
scalar RSUExampleScenario.node[101].veinsmobility 	maxSpeed 	13.999988443532
scalar RSUExampleScenario.node[101].veinsmobility 	totalDistance 	3413.8780787298
scalar RSUExampleScenario.node[101].veinsmobility 	totalCO2Emission 	737.27100497647
scalar RSUExampleScenario.node[102].veinsmobility 	startTime 	306.1
scalar RSUExampleScenario.node[102].veinsmobility 	totalTime 	313.6
scalar RSUExampleScenario.node[102].veinsmobility 	stopTime 	619.8
scalar RSUExampleScenario.node[102].veinsmobility 	minSpeed 	0.25988578794966
scalar RSUExampleScenario.node[102].veinsmobility 	maxSpeed 	13.999976429716
scalar RSUExampleScenario.node[102].veinsmobility 	totalDistance 	3409.9305531835
scalar RSUExampleScenario.node[102].veinsmobility 	totalCO2Emission 	733.53796880639
scalar RSUExampleScenario.node[103].veinsmobility 	startTime 	309.1
scalar RSUExampleScenario.node[103].veinsmobility 	totalTime 	314.4
scalar RSUExampleScenario.node[103].veinsmobility 	stopTime 	623.6
scalar RSUExampleScenario.node[103].veinsmobility 	minSpeed 	0.25534104363271
scalar RSUExampleScenario.node[103].veinsmobility 	maxSpeed 	13.999978098541
scalar RSUExampleScenario.node[103].veinsmobility 	totalDistance 	3413.7092878687
scalar RSUExampleScenario.node[103].veinsmobility 	totalCO2Emission 	740.80237579581
scalar RSUExampleScenario.node[104].veinsmobility 	startTime 	312.1
scalar RSUExampleScenario.node[104].veinsmobility 	totalTime 	315
scalar RSUExampleScenario.node[104].veinsmobility 	stopTime 	627.2
scalar RSUExampleScenario.node[104].veinsmobility 	minSpeed 	0.25467501385324
scalar RSUExampleScenario.node[104].veinsmobility 	maxSpeed 	13.99988813262
scalar RSUExampleScenario.node[104].veinsmobility 	totalDistance 	3409.45839091
scalar RSUExampleScenario.node[104].veinsmobility 	totalCO2Emission 	736.35781071872
scalar RSUExampleScenario.node[105].veinsmobility 	startTime 	315.1
scalar RSUExampleScenario.node[105].veinsmobility 	totalTime 	315.7
scalar RSUExampleScenario.node[105].veinsmobility 	stopTime 	630.9
scalar RSUExampleScenario.node[105].veinsmobility 	minSpeed 	0.25096116402256
scalar RSUExampleScenario.node[105].veinsmobility 	maxSpeed 	13.99999625809
scalar RSUExampleScenario.node[105].veinsmobility 	totalDistance 	3413.7459001055
scalar RSUExampleScenario.node[105].veinsmobility 	totalCO2Emission 	736.238297485
scalar RSUExampleScenario.node[106].veinsmobility 	startTime 	318.1
scalar RSUExampleScenario.node[106].veinsmobility 	totalTime 	316.4
scalar RSUExampleScenario.node[106].veinsmobility 	stopTime 	634.6
scalar RSUExampleScenario.node[106].veinsmobility 	minSpeed 	0.25456438002642
scalar RSUExampleScenario.node[106].veinsmobility 	maxSpeed 	13.999976099583
scalar RSUExampleScenario.node[106].veinsmobility 	totalDistance 	3410.0403749015
scalar RSUExampleScenario.node[106].veinsmobility 	totalCO2Emission 	739.7743163489
scalar RSUExampleScenario.node[107].veinsmobility 	startTime 	321.1
scalar RSUExampleScenario.node[107].veinsmobility 	totalTime 	317.2
scalar RSUExampleScenario.node[107].veinsmobility 	stopTime 	638.4
scalar RSUExampleScenario.node[107].veinsmobility 	minSpeed 	0.24907620959682
scalar RSUExampleScenario.node[107].veinsmobility 	maxSpeed 	13.99974804552
scalar RSUExampleScenario.node[107].veinsmobility 	totalDistance 	3414.3258900853
scalar RSUExampleScenario.node[107].veinsmobility 	totalCO2Emission 	737.51699821771
scalar RSUExampleScenario.node[108].veinsmobility 	startTime 	324.1
scalar RSUExampleScenario.node[108].veinsmobility 	totalTime 	318
scalar RSUExampleScenario.node[108].veinsmobility 	stopTime 	642.2
scalar RSUExampleScenario.node[108].veinsmobility 	minSpeed 	0.24834953868389
scalar RSUExampleScenario.node[108].veinsmobility 	maxSpeed 	13.999812331358
scalar RSUExampleScenario.node[108].veinsmobility 	totalDistance 	3410.1690736146
scalar RSUExampleScenario.node[108].veinsmobility 	totalCO2Emission 	738.00302136759
scalar RSUExampleScenario.node[109].veinsmobility 	startTime 	327.1
scalar RSUExampleScenario.node[109].veinsmobility 	totalTime 	318.6
scalar RSUExampleScenario.node[109].veinsmobility 	stopTime 	645.8
scalar RSUExampleScenario.node[109].veinsmobility 	minSpeed 	0.24717550209002
scalar RSUExampleScenario.node[109].veinsmobility 	maxSpeed 	13.999888954002
scalar RSUExampleScenario.node[109].veinsmobility 	totalDistance 	3413.6248856973
scalar RSUExampleScenario.node[109].veinsmobility 	totalCO2Emission 	738.53786712967
scalar RSUExampleScenario.node[110].veinsmobility 	startTime 	330.1
scalar RSUExampleScenario.node[110].veinsmobility 	totalTime 	319.3
scalar RSUExampleScenario.node[110].veinsmobility 	stopTime 	649.5
scalar RSUExampleScenario.node[110].veinsmobility 	minSpeed 	0.2586650109028
scalar RSUExampleScenario.node[110].veinsmobility 	maxSpeed 	13.999907844251
scalar RSUExampleScenario.node[110].veinsmobility 	totalDistance 	3410.1920686234
scalar RSUExampleScenario.node[110].veinsmobility 	totalCO2Emission 	747.12062521179
scalar RSUExampleScenario.node[111].veinsmobility 	startTime 	333.1
scalar RSUExampleScenario.node[111].veinsmobility 	totalTime 	320
scalar RSUExampleScenario.node[111].veinsmobility 	stopTime 	653.2
scalar RSUExampleScenario.node[111].veinsmobility 	minSpeed 	0.25714037885866
scalar RSUExampleScenario.node[111].veinsmobility 	maxSpeed 	13.999952140476
scalar RSUExampleScenario.node[111].veinsmobility 	totalDistance 	3414.1654909901
scalar RSUExampleScenario.node[111].veinsmobility 	totalCO2Emission 	743.47159290401
scalar RSUExampleScenario.node[112].veinsmobility 	startTime 	336.1
scalar RSUExampleScenario.node[112].veinsmobility 	totalTime 	320.7
scalar RSUExampleScenario.node[112].veinsmobility 	stopTime 	656.9
scalar RSUExampleScenario.node[112].veinsmobility 	minSpeed 	0.2592966991819
scalar RSUExampleScenario.node[112].veinsmobility 	maxSpeed 	13.99999071463
scalar RSUExampleScenario.node[112].veinsmobility 	totalDistance 	3409.5648847886
scalar RSUExampleScenario.node[112].veinsmobility 	totalCO2Emission 	742.09121955089
scalar RSUExampleScenario.node[113].veinsmobility 	startTime 	339.1
scalar RSUExampleScenario.node[113].veinsmobility 	totalTime 	321.4
scalar RSUExampleScenario.node[113].veinsmobility 	stopTime 	660.6
scalar RSUExampleScenario.node[113].veinsmobility 	minSpeed 	0.24833417379577
scalar RSUExampleScenario.node[113].veinsmobility 	maxSpeed 	13.999901987638
scalar RSUExampleScenario.node[113].veinsmobility 	totalDistance 	3413.8496043046
scalar RSUExampleScenario.node[113].veinsmobility 	totalCO2Emission 	742.85409141239
scalar RSUExampleScenario.node[114].veinsmobility 	startTime 	342.1
scalar RSUExampleScenario.node[114].veinsmobility 	totalTime 	322.1
scalar RSUExampleScenario.node[114].veinsmobility 	stopTime 	664.3
scalar RSUExampleScenario.node[114].veinsmobility 	minSpeed 	0.2586419451253
scalar RSUExampleScenario.node[114].veinsmobility 	maxSpeed 	13.999991402167
scalar RSUExampleScenario.node[114].veinsmobility 	totalDistance 	3409.4985560936
scalar RSUExampleScenario.node[114].veinsmobility 	totalCO2Emission 	745.19175095869
scalar RSUExampleScenario.node[115].veinsmobility 	startTime 	345.1
scalar RSUExampleScenario.node[115].veinsmobility 	totalTime 	322.8
scalar RSUExampleScenario.node[115].veinsmobility 	stopTime 	668
scalar RSUExampleScenario.node[115].veinsmobility 	minSpeed 	0.24834999284288
scalar RSUExampleScenario.node[115].veinsmobility 	maxSpeed 	13.999994984535
scalar RSUExampleScenario.node[115].veinsmobility 	totalDistance 	3413.8811823105
scalar RSUExampleScenario.node[115].veinsmobility 	totalCO2Emission 	747.02671483217
scalar RSUExampleScenario.node[116].veinsmobility 	startTime 	348.1
scalar RSUExampleScenario.node[116].veinsmobility 	totalTime 	323.4
scalar RSUExampleScenario.node[116].veinsmobility 	stopTime 	671.6
scalar RSUExampleScenario.node[116].veinsmobility 	minSpeed 	0.25673784582759
scalar RSUExampleScenario.node[116].veinsmobility 	maxSpeed 	13.999987568606
scalar RSUExampleScenario.node[116].veinsmobility 	totalDistance 	3409.7964659668
scalar RSUExampleScenario.node[116].veinsmobility 	totalCO2Emission 	746.7774675411
scalar RSUExampleScenario.node[117].veinsmobility 	startTime 	351.1
scalar RSUExampleScenario.node[117].veinsmobility 	totalTime 	324
scalar RSUExampleScenario.node[117].veinsmobility 	stopTime 	675.2
scalar RSUExampleScenario.node[117].veinsmobility 	minSpeed 	0.25844430368813
scalar RSUExampleScenario.node[117].veinsmobility 	maxSpeed 	13.999973737863
scalar RSUExampleScenario.node[117].veinsmobility 	totalDistance 	3413.6347776495
scalar RSUExampleScenario.node[117].veinsmobility 	totalCO2Emission 	744.64016271809
scalar RSUExampleScenario.node[118].veinsmobility 	startTime 	354.1
scalar RSUExampleScenario.node[118].veinsmobility 	totalTime 	324.7
scalar RSUExampleScenario.node[118].veinsmobility 	stopTime 	678.9
scalar RSUExampleScenario.node[118].veinsmobility 	minSpeed 	0.25439966695313
scalar RSUExampleScenario.node[118].veinsmobility 	maxSpeed 	13.999973322102
scalar RSUExampleScenario.node[118].veinsmobility 	totalDistance 	3410.1795244859
scalar RSUExampleScenario.node[118].veinsmobility 	totalCO2Emission 	746.09614673008
scalar RSUExampleScenario.node[119].veinsmobility 	startTime 	357.1
scalar RSUExampleScenario.node[119].veinsmobility 	totalTime 	325.3
scalar RSUExampleScenario.node[119].veinsmobility 	stopTime 	682.5
scalar RSUExampleScenario.node[119].veinsmobility 	minSpeed 	0.25355108317616
scalar RSUExampleScenario.node[119].veinsmobility 	maxSpeed 	13.999941596987
scalar RSUExampleScenario.node[119].veinsmobility 	totalDistance 	3413.7267198043
scalar RSUExampleScenario.node[119].veinsmobility 	totalCO2Emission 	745.11875699275
scalar RSUExampleScenario.node[120].veinsmobility 	startTime 	360.1
scalar RSUExampleScenario.node[120].veinsmobility 	totalTime 	326.1
scalar RSUExampleScenario.node[120].veinsmobility 	stopTime 	686.3
scalar RSUExampleScenario.node[120].veinsmobility 	minSpeed 	0.24911786804022
scalar RSUExampleScenario.node[120].veinsmobility 	maxSpeed 	13.999951419977
scalar RSUExampleScenario.node[120].veinsmobility 	totalDistance 	3410.2092766835
scalar RSUExampleScenario.node[120].veinsmobility 	totalCO2Emission 	749.61425027414
scalar RSUExampleScenario.node[121].veinsmobility 	startTime 	363.1
scalar RSUExampleScenario.node[121].veinsmobility 	totalTime 	326.8
scalar RSUExampleScenario.node[121].veinsmobility 	stopTime 	690
scalar RSUExampleScenario.node[121].veinsmobility 	minSpeed 	0.24896611364116
scalar RSUExampleScenario.node[121].veinsmobility 	maxSpeed 	13.999967171012
scalar RSUExampleScenario.node[121].veinsmobility 	totalDistance 	3413.9582420447
scalar RSUExampleScenario.node[121].veinsmobility 	totalCO2Emission 	748.91837516176
scalar RSUExampleScenario.node[122].veinsmobility 	startTime 	366.1
scalar RSUExampleScenario.node[122].veinsmobility 	totalTime 	327.5
scalar RSUExampleScenario.node[122].veinsmobility 	stopTime 	693.7
scalar RSUExampleScenario.node[122].veinsmobility 	minSpeed 	0.24980473038903
scalar RSUExampleScenario.node[122].veinsmobility 	maxSpeed 	13.999991154394
scalar RSUExampleScenario.node[122].veinsmobility 	totalDistance 	3409.9732613825
scalar RSUExampleScenario.node[122].veinsmobility 	totalCO2Emission 	749.96995291803
scalar RSUExampleScenario.node[123].veinsmobility 	startTime 	369.1
scalar RSUExampleScenario.node[123].veinsmobility 	totalTime 	328.2
scalar RSUExampleScenario.node[123].veinsmobility 	stopTime 	697.4
scalar RSUExampleScenario.node[123].veinsmobility 	minSpeed 	0.25314780080668
scalar RSUExampleScenario.node[123].veinsmobility 	maxSpeed 	13.999861271298
scalar RSUExampleScenario.node[123].veinsmobility 	totalDistance 	3414.1705635257
scalar RSUExampleScenario.node[123].veinsmobility 	totalCO2Emission 	747.97159175341
scalar RSUExampleScenario.node[124].veinsmobility 	startTime 	372.1
scalar RSUExampleScenario.node[124].veinsmobility 	totalTime 	328.9
scalar RSUExampleScenario.node[124].veinsmobility 	stopTime 	701.1
scalar RSUExampleScenario.node[124].veinsmobility 	minSpeed 	0.25518240979314
scalar RSUExampleScenario.node[124].veinsmobility 	maxSpeed 	13.999962942726
scalar RSUExampleScenario.node[124].veinsmobility 	totalDistance 	3409.6455723199
scalar RSUExampleScenario.node[124].veinsmobility 	totalCO2Emission 	752.87599999762
scalar RSUExampleScenario.node[125].veinsmobility 	startTime 	375.1
scalar RSUExampleScenario.node[125].veinsmobility 	totalTime 	329.6
scalar RSUExampleScenario.node[125].veinsmobility 	stopTime 	704.8
scalar RSUExampleScenario.node[125].veinsmobility 	minSpeed 	0.25965377714741
scalar RSUExampleScenario.node[125].veinsmobility 	maxSpeed 	13.999963513853
scalar RSUExampleScenario.node[125].veinsmobility 	totalDistance 	3413.9048552041
scalar RSUExampleScenario.node[125].veinsmobility 	totalCO2Emission 	752.43755945911
scalar RSUExampleScenario.node[126].veinsmobility 	startTime 	378.1
scalar RSUExampleScenario.node[126].veinsmobility 	totalTime 	330.3
scalar RSUExampleScenario.node[126].veinsmobility 	stopTime 	708.5
scalar RSUExampleScenario.node[126].veinsmobility 	minSpeed 	0.25455895183282
scalar RSUExampleScenario.node[126].veinsmobility 	maxSpeed 	13.99999600054
scalar RSUExampleScenario.node[126].veinsmobility 	totalDistance 	3409.5966701033
scalar RSUExampleScenario.node[126].veinsmobility 	totalCO2Emission 	749.1304361453
scalar RSUExampleScenario.node[127].veinsmobility 	startTime 	381.1
scalar RSUExampleScenario.node[127].veinsmobility 	totalTime 	331
scalar RSUExampleScenario.node[127].veinsmobility 	stopTime 	712.2
scalar RSUExampleScenario.node[127].veinsmobility 	minSpeed 	0.2492885753063
scalar RSUExampleScenario.node[127].veinsmobility 	maxSpeed 	13.999926840165
scalar RSUExampleScenario.node[127].veinsmobility 	totalDistance 	3413.578709162
scalar RSUExampleScenario.node[127].veinsmobility 	totalCO2Emission 	753.80834882036
scalar RSUExampleScenario.node[128].veinsmobility 	startTime 	384.1
scalar RSUExampleScenario.node[128].veinsmobility 	totalTime 	331.7
scalar RSUExampleScenario.node[128].veinsmobility 	stopTime 	715.9
scalar RSUExampleScenario.node[128].veinsmobility 	minSpeed 	0.24720582016115
scalar RSUExampleScenario.node[128].veinsmobility 	maxSpeed 	13.999920066553
scalar RSUExampleScenario.node[128].veinsmobility 	totalDistance 	3409.8550893991
scalar RSUExampleScenario.node[128].veinsmobility 	totalCO2Emission 	755.20656912624
scalar RSUExampleScenario.node[129].veinsmobility 	startTime 	387.1
scalar RSUExampleScenario.node[129].veinsmobility 	totalTime 	332.3
scalar RSUExampleScenario.node[129].veinsmobility 	stopTime 	719.5
scalar RSUExampleScenario.node[129].veinsmobility 	minSpeed 	0.25163845549873
scalar RSUExampleScenario.node[129].veinsmobility 	maxSpeed 	13.999957140111
scalar RSUExampleScenario.node[129].veinsmobility 	totalDistance 	3413.9505156712
scalar RSUExampleScenario.node[129].veinsmobility 	totalCO2Emission 	755.85032040358
scalar RSUExampleScenario.node[130].veinsmobility 	startTime 	390.1
scalar RSUExampleScenario.node[130].veinsmobility 	totalTime 	333
scalar RSUExampleScenario.node[130].veinsmobility 	stopTime 	723.2
scalar RSUExampleScenario.node[130].veinsmobility 	minSpeed 	0.24817445031181
scalar RSUExampleScenario.node[130].veinsmobility 	maxSpeed 	13.999983862806
scalar RSUExampleScenario.node[130].veinsmobility 	totalDistance 	3409.6440003634
scalar RSUExampleScenario.node[130].veinsmobility 	totalCO2Emission 	756.28103426086
scalar RSUExampleScenario.node[131].veinsmobility 	startTime 	393.1
scalar RSUExampleScenario.node[131].veinsmobility 	totalTime 	333.7
scalar RSUExampleScenario.node[131].veinsmobility 	stopTime 	726.9
scalar RSUExampleScenario.node[131].veinsmobility 	minSpeed 	0.25656768565229
scalar RSUExampleScenario.node[131].veinsmobility 	maxSpeed 	13.999962705879
scalar RSUExampleScenario.node[131].veinsmobility 	totalDistance 	3414.0976133616
scalar RSUExampleScenario.node[131].veinsmobility 	totalCO2Emission 	754.96048324302
scalar RSUExampleScenario.node[132].veinsmobility 	startTime 	396.1
scalar RSUExampleScenario.node[132].veinsmobility 	totalTime 	334.4
scalar RSUExampleScenario.node[132].veinsmobility 	stopTime 	730.6
scalar RSUExampleScenario.node[132].veinsmobility 	minSpeed 	0.2561034874008
scalar RSUExampleScenario.node[132].veinsmobility 	maxSpeed 	13.999908061393
scalar RSUExampleScenario.node[132].veinsmobility 	totalDistance 	3409.4982530334
scalar RSUExampleScenario.node[132].veinsmobility 	totalCO2Emission 	755.20856709663
scalar RSUExampleScenario.node[133].veinsmobility 	startTime 	399.1
scalar RSUExampleScenario.node[133].veinsmobility 	totalTime 	335.1
scalar RSUExampleScenario.node[133].veinsmobility 	stopTime 	734.3
scalar RSUExampleScenario.node[133].veinsmobility 	minSpeed 	0.24705268641375
scalar RSUExampleScenario.node[133].veinsmobility 	maxSpeed 	13.999907660766
scalar RSUExampleScenario.node[133].veinsmobility 	totalDistance 	3413.9401525964
scalar RSUExampleScenario.node[133].veinsmobility 	totalCO2Emission 	758.21878250233
scalar RSUExampleScenario.node[134].veinsmobility 	startTime 	402.1
scalar RSUExampleScenario.node[134].veinsmobility 	totalTime 	335.8
scalar RSUExampleScenario.node[134].veinsmobility 	stopTime 	738
scalar RSUExampleScenario.node[134].veinsmobility 	minSpeed 	0.25436362240347
scalar RSUExampleScenario.node[134].veinsmobility 	maxSpeed 	13.99970150895
scalar RSUExampleScenario.node[134].veinsmobility 	totalDistance 	3410.1191605405
scalar RSUExampleScenario.node[134].veinsmobility 	totalCO2Emission 	757.44767248305
scalar RSUExampleScenario.node[135].veinsmobility 	startTime 	405.1
scalar RSUExampleScenario.node[135].veinsmobility 	totalTime 	336.5
scalar RSUExampleScenario.node[135].veinsmobility 	stopTime 	741.7
scalar RSUExampleScenario.node[135].veinsmobility 	minSpeed 	0.25315410548239
scalar RSUExampleScenario.node[135].veinsmobility 	maxSpeed 	13.999916129143
scalar RSUExampleScenario.node[135].veinsmobility 	totalDistance 	3413.9751347279
scalar RSUExampleScenario.node[135].veinsmobility 	totalCO2Emission 	754.46223645436
scalar RSUExampleScenario.node[136].veinsmobility 	startTime 	408.1
scalar RSUExampleScenario.node[136].veinsmobility 	totalTime 	337.3
scalar RSUExampleScenario.node[136].veinsmobility 	stopTime 	745.5
scalar RSUExampleScenario.node[136].veinsmobility 	minSpeed 	0.24951173772966
scalar RSUExampleScenario.node[136].veinsmobility 	maxSpeed 	13.999823845571
scalar RSUExampleScenario.node[136].veinsmobility 	totalDistance 	3409.9928670757
scalar RSUExampleScenario.node[136].veinsmobility 	totalCO2Emission 	757.36276408284
scalar RSUExampleScenario.node[137].veinsmobility 	startTime 	411.1
scalar RSUExampleScenario.node[137].veinsmobility 	totalTime 	338
scalar RSUExampleScenario.node[137].veinsmobility 	stopTime 	749.2
scalar RSUExampleScenario.node[137].veinsmobility 	minSpeed 	0.25635627586022
scalar RSUExampleScenario.node[137].veinsmobility 	maxSpeed 	13.999651841489
scalar RSUExampleScenario.node[137].veinsmobility 	totalDistance 	3414.1197098095
scalar RSUExampleScenario.node[137].veinsmobility 	totalCO2Emission 	756.54710163738
scalar RSUExampleScenario.node[138].veinsmobility 	startTime 	414.1
scalar RSUExampleScenario.node[138].veinsmobility 	totalTime 	338.6
scalar RSUExampleScenario.node[138].veinsmobility 	stopTime 	752.8
scalar RSUExampleScenario.node[138].veinsmobility 	minSpeed 	0.24760201015789
scalar RSUExampleScenario.node[138].veinsmobility 	maxSpeed 	13.9999687362
scalar RSUExampleScenario.node[138].veinsmobility 	totalDistance 	3409.5195413449
scalar RSUExampleScenario.node[138].veinsmobility 	totalCO2Emission 	759.554763447
scalar RSUExampleScenario.node[139].veinsmobility 	startTime 	417.1
scalar RSUExampleScenario.node[139].veinsmobility 	totalTime 	339.3
scalar RSUExampleScenario.node[139].veinsmobility 	stopTime 	756.5
scalar RSUExampleScenario.node[139].veinsmobility 	minSpeed 	0.25179838060378
scalar RSUExampleScenario.node[139].veinsmobility 	maxSpeed 	13.999895162843
scalar RSUExampleScenario.node[139].veinsmobility 	totalDistance 	3413.6550169616
scalar RSUExampleScenario.node[139].veinsmobility 	totalCO2Emission 	761.47467001182
scalar RSUExampleScenario.node[140].veinsmobility 	startTime 	420.1
scalar RSUExampleScenario.node[140].veinsmobility 	totalTime 	340
scalar RSUExampleScenario.node[140].veinsmobility 	stopTime 	760.2
scalar RSUExampleScenario.node[140].veinsmobility 	minSpeed 	0.25978901952901
scalar RSUExampleScenario.node[140].veinsmobility 	maxSpeed 	13.999977023937
scalar RSUExampleScenario.node[140].veinsmobility 	totalDistance 	3409.9198420527
scalar RSUExampleScenario.node[140].veinsmobility 	totalCO2Emission 	767.40305537565
scalar RSUExampleScenario.node[141].veinsmobility 	startTime 	423.1
scalar RSUExampleScenario.node[141].veinsmobility 	totalTime 	340.7
scalar RSUExampleScenario.node[141].veinsmobility 	stopTime 	763.9
scalar RSUExampleScenario.node[141].veinsmobility 	minSpeed 	0.2590073018535
scalar RSUExampleScenario.node[141].veinsmobility 	maxSpeed 	13.999998061275
scalar RSUExampleScenario.node[141].veinsmobility 	totalDistance 	3413.8877836422
scalar RSUExampleScenario.node[141].veinsmobility 	totalCO2Emission 	765.57399280306
scalar RSUExampleScenario.node[142].veinsmobility 	startTime 	426.1
scalar RSUExampleScenario.node[142].veinsmobility 	totalTime 	341.4
scalar RSUExampleScenario.node[142].veinsmobility 	stopTime 	767.6
scalar RSUExampleScenario.node[142].veinsmobility 	minSpeed 	0.25347545050713
scalar RSUExampleScenario.node[142].veinsmobility 	maxSpeed 	13.999983534247
scalar RSUExampleScenario.node[142].veinsmobility 	totalDistance 	3409.6120158662
scalar RSUExampleScenario.node[142].veinsmobility 	totalCO2Emission 	761.86888035089
scalar RSUExampleScenario.node[143].veinsmobility 	startTime 	429.1
scalar RSUExampleScenario.node[143].veinsmobility 	totalTime 	342.1
scalar RSUExampleScenario.node[143].veinsmobility 	stopTime 	771.3
scalar RSUExampleScenario.node[143].veinsmobility 	minSpeed 	0.2539060727295
scalar RSUExampleScenario.node[143].veinsmobility 	maxSpeed 	13.999987826671
scalar RSUExampleScenario.node[143].veinsmobility 	totalDistance 	3410.0746833074
scalar RSUExampleScenario.node[143].veinsmobility 	totalCO2Emission 	765.97158044444
scalar RSUExampleScenario.node[144].veinsmobility 	startTime 	432.1
scalar RSUExampleScenario.node[144].veinsmobility 	totalTime 	342.7
scalar RSUExampleScenario.node[144].veinsmobility 	stopTime 	774.9
scalar RSUExampleScenario.node[144].veinsmobility 	minSpeed 	0.25490137625625
scalar RSUExampleScenario.node[144].veinsmobility 	maxSpeed 	13.999943245472
scalar RSUExampleScenario.node[144].veinsmobility 	totalDistance 	3413.6725316374
scalar RSUExampleScenario.node[144].veinsmobility 	totalCO2Emission 	759.64853761671
scalar RSUExampleScenario.node[145].veinsmobility 	startTime 	435.1
scalar RSUExampleScenario.node[145].veinsmobility 	totalTime 	343.4
scalar RSUExampleScenario.node[145].veinsmobility 	stopTime 	778.6
scalar RSUExampleScenario.node[145].veinsmobility 	minSpeed 	0.25669978524861
scalar RSUExampleScenario.node[145].veinsmobility 	maxSpeed 	13.999975109971
scalar RSUExampleScenario.node[145].veinsmobility 	totalDistance 	3409.7755091387
scalar RSUExampleScenario.node[145].veinsmobility 	totalCO2Emission 	767.28422428811
scalar RSUExampleScenario.node[146].veinsmobility 	startTime 	438.1
scalar RSUExampleScenario.node[146].veinsmobility 	totalTime 	344.1
scalar RSUExampleScenario.node[146].veinsmobility 	stopTime 	782.3
scalar RSUExampleScenario.node[146].veinsmobility 	minSpeed 	0.24930064909603
scalar RSUExampleScenario.node[146].veinsmobility 	maxSpeed 	13.99998614707
scalar RSUExampleScenario.node[146].veinsmobility 	totalDistance 	3414.264332881
scalar RSUExampleScenario.node[146].veinsmobility 	totalCO2Emission 	768.63933344339
scalar RSUExampleScenario.node[147].veinsmobility 	startTime 	441.1
scalar RSUExampleScenario.node[147].veinsmobility 	totalTime 	344.8
scalar RSUExampleScenario.node[147].veinsmobility 	stopTime 	786
scalar RSUExampleScenario.node[147].veinsmobility 	minSpeed 	0.25734831340495
scalar RSUExampleScenario.node[147].veinsmobility 	maxSpeed 	13.999850437418
scalar RSUExampleScenario.node[147].veinsmobility 	totalDistance 	3409.8897088322
scalar RSUExampleScenario.node[147].veinsmobility 	totalCO2Emission 	766.78680492941
scalar RSUExampleScenario.node[148].veinsmobility 	startTime 	444.1
scalar RSUExampleScenario.node[148].veinsmobility 	totalTime 	345.5
scalar RSUExampleScenario.node[148].veinsmobility 	stopTime 	789.7
scalar RSUExampleScenario.node[148].veinsmobility 	minSpeed 	0.2522608863574
scalar RSUExampleScenario.node[148].veinsmobility 	maxSpeed 	13.99998810662
scalar RSUExampleScenario.node[148].veinsmobility 	totalDistance 	3413.9781006351
scalar RSUExampleScenario.node[148].veinsmobility 	totalCO2Emission 	768.75548593765
scalar RSUExampleScenario.node[149].veinsmobility 	startTime 	447.1
scalar RSUExampleScenario.node[149].veinsmobility 	totalTime 	346.2
scalar RSUExampleScenario.node[149].veinsmobility 	stopTime 	793.4
scalar RSUExampleScenario.node[149].veinsmobility 	minSpeed 	0.24819562817831
scalar RSUExampleScenario.node[149].veinsmobility 	maxSpeed 	13.999839704391
scalar RSUExampleScenario.node[149].veinsmobility 	totalDistance 	3410.1810011254
scalar RSUExampleScenario.node[149].veinsmobility 	totalCO2Emission 	767.08651494814
scalar RSUExampleScenario.node[150].veinsmobility 	startTime 	450.1
scalar RSUExampleScenario.node[150].veinsmobility 	totalTime 	346.9
scalar RSUExampleScenario.node[150].veinsmobility 	stopTime 	797.1
scalar RSUExampleScenario.node[150].veinsmobility 	minSpeed 	0.24766467200918
scalar RSUExampleScenario.node[150].veinsmobility 	maxSpeed 	13.999986655512
scalar RSUExampleScenario.node[150].veinsmobility 	totalDistance 	3413.7994016623
scalar RSUExampleScenario.node[150].veinsmobility 	totalCO2Emission 	767.85408229176
scalar RSUExampleScenario.node[151].veinsmobility 	startTime 	453.1
scalar RSUExampleScenario.node[151].veinsmobility 	totalTime 	347.6
scalar RSUExampleScenario.node[151].veinsmobility 	stopTime 	800.8
scalar RSUExampleScenario.node[151].veinsmobility 	minSpeed 	0.2589637517489
scalar RSUExampleScenario.node[151].veinsmobility 	maxSpeed 	13.999990605665
scalar RSUExampleScenario.node[151].veinsmobility 	totalDistance 	3410.1966189263
scalar RSUExampleScenario.node[151].veinsmobility 	totalCO2Emission 	766.87003855731
scalar RSUExampleScenario.node[152].veinsmobility 	startTime 	456.1
scalar RSUExampleScenario.node[152].veinsmobility 	totalTime 	348.4
scalar RSUExampleScenario.node[152].veinsmobility 	stopTime 	804.6
scalar RSUExampleScenario.node[152].veinsmobility 	minSpeed 	0.25474833067344
scalar RSUExampleScenario.node[152].veinsmobility 	maxSpeed 	13.999950677291
scalar RSUExampleScenario.node[152].veinsmobility 	totalDistance 	3413.8563073152
[...]
scalar RSUExampleScenario.node[628].veinsmobility 	totalCO2Emission 	326.65426146594
scalar RSUExampleScenario.node[629].veinsmobility 	startTime 	1887.1
scalar RSUExampleScenario.node[629].veinsmobility 	totalTime 	112.8
scalar RSUExampleScenario.node[629].veinsmobility 	stopTime 	2000
scalar RSUExampleScenario.node[629].veinsmobility 	minSpeed 	0.25884962137369
scalar RSUExampleScenario.node[629].veinsmobility 	maxSpeed 	13.999894634122
scalar RSUExampleScenario.node[629].veinsmobility 	totalDistance 	1362.8366430476
scalar RSUExampleScenario.node[629].veinsmobility 	totalCO2Emission 	319.13566677543
scalar RSUExampleScenario.node[630].veinsmobility 	startTime 	1890.1
scalar RSUExampleScenario.node[630].veinsmobility 	totalTime 	109.8
scalar RSUExampleScenario.node[630].veinsmobility 	stopTime 	2000
scalar RSUExampleScenario.node[630].veinsmobility 	minSpeed 	0.25286673837295
scalar RSUExampleScenario.node[630].veinsmobility 	maxSpeed 	13.999554725271
scalar RSUExampleScenario.node[630].veinsmobility 	totalDistance 	1317.8831076759
scalar RSUExampleScenario.node[630].veinsmobility 	totalCO2Emission 	310.21153956707
scalar RSUExampleScenario.node[631].veinsmobility 	startTime 	1893.1
scalar RSUExampleScenario.node[631].veinsmobility 	totalTime 	106.8
scalar RSUExampleScenario.node[631].veinsmobility 	stopTime 	2000
scalar RSUExampleScenario.node[631].veinsmobility 	minSpeed 	0.25731377198757
scalar RSUExampleScenario.node[631].veinsmobility 	maxSpeed 	13.999850745788
scalar RSUExampleScenario.node[631].veinsmobility 	totalDistance 	1278.9658179301
scalar RSUExampleScenario.node[631].veinsmobility 	totalCO2Emission 	301.65476008117
scalar RSUExampleScenario.node[632].veinsmobility 	startTime 	1896.1
scalar RSUExampleScenario.node[632].veinsmobility 	totalTime 	103.8
scalar RSUExampleScenario.node[632].veinsmobility 	stopTime 	2000
scalar RSUExampleScenario.node[632].veinsmobility 	minSpeed 	0.24781086309836
scalar RSUExampleScenario.node[632].veinsmobility 	maxSpeed 	13.999950933419
scalar RSUExampleScenario.node[632].veinsmobility 	totalDistance 	1236.0990088568
scalar RSUExampleScenario.node[632].veinsmobility 	totalCO2Emission 	295.88179359636
scalar RSUExampleScenario.node[633].veinsmobility 	startTime 	1899.1
scalar RSUExampleScenario.node[633].veinsmobility 	totalTime 	100.8
scalar RSUExampleScenario.node[633].veinsmobility 	stopTime 	2000
scalar RSUExampleScenario.node[633].veinsmobility 	minSpeed 	0.25218934218469
scalar RSUExampleScenario.node[633].veinsmobility 	maxSpeed 	13.999651647864
scalar RSUExampleScenario.node[633].veinsmobility 	totalDistance 	1194.1311184731
scalar RSUExampleScenario.node[633].veinsmobility 	totalCO2Emission 	289.54198548055
scalar RSUExampleScenario.node[634].veinsmobility 	startTime 	1902.1
scalar RSUExampleScenario.node[634].veinsmobility 	totalTime 	97.8
scalar RSUExampleScenario.node[634].veinsmobility 	stopTime 	2000
scalar RSUExampleScenario.node[634].veinsmobility 	minSpeed 	0.24811221293267
scalar RSUExampleScenario.node[634].veinsmobility 	maxSpeed 	13.999583747
scalar RSUExampleScenario.node[634].veinsmobility 	totalDistance 	1155.3058184058
scalar RSUExampleScenario.node[634].veinsmobility 	totalCO2Emission 	280.99777051202
scalar RSUExampleScenario.node[635].veinsmobility 	startTime 	1905.1
scalar RSUExampleScenario.node[635].veinsmobility 	totalTime 	94.8
scalar RSUExampleScenario.node[635].veinsmobility 	stopTime 	2000
scalar RSUExampleScenario.node[635].veinsmobility 	minSpeed 	0.2525161898653
scalar RSUExampleScenario.node[635].veinsmobility 	maxSpeed 	13.999847853621
scalar RSUExampleScenario.node[635].veinsmobility 	totalDistance 	1114.0606719383
scalar RSUExampleScenario.node[635].veinsmobility 	totalCO2Emission 	275.52488618961
scalar RSUExampleScenario.node[636].veinsmobility 	startTime 	1908.1
scalar RSUExampleScenario.node[636].veinsmobility 	totalTime 	91.8
scalar RSUExampleScenario.node[636].veinsmobility 	stopTime 	2000
scalar RSUExampleScenario.node[636].veinsmobility 	minSpeed 	0.25512569610309
scalar RSUExampleScenario.node[636].veinsmobility 	maxSpeed 	13.999919941849
scalar RSUExampleScenario.node[636].veinsmobility 	totalDistance 	1072.1014661592
scalar RSUExampleScenario.node[636].veinsmobility 	totalCO2Emission 	269.75571873213
scalar RSUExampleScenario.node[637].veinsmobility 	startTime 	1911.1
scalar RSUExampleScenario.node[637].veinsmobility 	totalTime 	88.8
scalar RSUExampleScenario.node[637].veinsmobility 	stopTime 	2000
scalar RSUExampleScenario.node[637].veinsmobility 	minSpeed 	0.25826659611543
scalar RSUExampleScenario.node[637].veinsmobility 	maxSpeed 	13.999939984067
scalar RSUExampleScenario.node[637].veinsmobility 	totalDistance 	1029.1781311518
scalar RSUExampleScenario.node[637].veinsmobility 	totalCO2Emission 	261.19022476227
scalar RSUExampleScenario.node[638].veinsmobility 	startTime 	1914.1
scalar RSUExampleScenario.node[638].veinsmobility 	totalTime 	85.8
scalar RSUExampleScenario.node[638].veinsmobility 	stopTime 	2000
scalar RSUExampleScenario.node[638].veinsmobility 	minSpeed 	0.25992854752112
scalar RSUExampleScenario.node[638].veinsmobility 	maxSpeed 	13.999490855709
scalar RSUExampleScenario.node[638].veinsmobility 	totalDistance 	986.20436449844
scalar RSUExampleScenario.node[638].veinsmobility 	totalCO2Emission 	254.86881529978
scalar RSUExampleScenario.node[639].veinsmobility 	startTime 	1917.1
scalar RSUExampleScenario.node[639].veinsmobility 	totalTime 	82.8
scalar RSUExampleScenario.node[639].veinsmobility 	stopTime 	2000
scalar RSUExampleScenario.node[639].veinsmobility 	minSpeed 	0.24911341491155
scalar RSUExampleScenario.node[639].veinsmobility 	maxSpeed 	13.999858417541
scalar RSUExampleScenario.node[639].veinsmobility 	totalDistance 	954.3838460631
scalar RSUExampleScenario.node[639].veinsmobility 	totalCO2Emission 	232.85481988606
scalar RSUExampleScenario.node[640].veinsmobility 	startTime 	1920.1
scalar RSUExampleScenario.node[640].veinsmobility 	totalTime 	79.8
scalar RSUExampleScenario.node[640].veinsmobility 	stopTime 	2000
scalar RSUExampleScenario.node[640].veinsmobility 	minSpeed 	0.24943175441935
scalar RSUExampleScenario.node[640].veinsmobility 	maxSpeed 	13.999881104939
scalar RSUExampleScenario.node[640].veinsmobility 	totalDistance 	937.34379740998
scalar RSUExampleScenario.node[640].veinsmobility 	totalCO2Emission 	222.24488351719
scalar RSUExampleScenario.node[641].veinsmobility 	startTime 	1923.1
scalar RSUExampleScenario.node[641].veinsmobility 	totalTime 	76.8
scalar RSUExampleScenario.node[641].veinsmobility 	stopTime 	2000
scalar RSUExampleScenario.node[641].veinsmobility 	minSpeed 	0.25680446102866
scalar RSUExampleScenario.node[641].veinsmobility 	maxSpeed 	13.999847782976
scalar RSUExampleScenario.node[641].veinsmobility 	totalDistance 	912.44461967942
scalar RSUExampleScenario.node[641].veinsmobility 	totalCO2Emission 	219.74283280803
scalar RSUExampleScenario.node[642].veinsmobility 	startTime 	1926.1
scalar RSUExampleScenario.node[642].veinsmobility 	totalTime 	73.8
scalar RSUExampleScenario.node[642].veinsmobility 	stopTime 	2000
scalar RSUExampleScenario.node[642].veinsmobility 	minSpeed 	0.25078561378527
scalar RSUExampleScenario.node[642].veinsmobility 	maxSpeed 	13.999650762042
scalar RSUExampleScenario.node[642].veinsmobility 	totalDistance 	873.67573804956
scalar RSUExampleScenario.node[642].veinsmobility 	totalCO2Emission 	213.25624796827
scalar RSUExampleScenario.node[643].veinsmobility 	startTime 	1929.1
scalar RSUExampleScenario.node[643].veinsmobility 	totalTime 	70.8
scalar RSUExampleScenario.node[643].veinsmobility 	stopTime 	2000
scalar RSUExampleScenario.node[643].veinsmobility 	minSpeed 	0.25840258417302
scalar RSUExampleScenario.node[643].veinsmobility 	maxSpeed 	13.999161732066
scalar RSUExampleScenario.node[643].veinsmobility 	totalDistance 	832.2270383274
scalar RSUExampleScenario.node[643].veinsmobility 	totalCO2Emission 	206.51000610623
scalar RSUExampleScenario.node[644].veinsmobility 	startTime 	1932.1
scalar RSUExampleScenario.node[644].veinsmobility 	totalTime 	67.8
scalar RSUExampleScenario.node[644].veinsmobility 	stopTime 	2000
scalar RSUExampleScenario.node[644].veinsmobility 	minSpeed 	0.25753434257861
scalar RSUExampleScenario.node[644].veinsmobility 	maxSpeed 	13.999211914416
scalar RSUExampleScenario.node[644].veinsmobility 	totalDistance 	789.60999229595
scalar RSUExampleScenario.node[644].veinsmobility 	totalCO2Emission 	200.52876785055
scalar RSUExampleScenario.node[645].veinsmobility 	startTime 	1935.1
scalar RSUExampleScenario.node[645].veinsmobility 	totalTime 	64.8
scalar RSUExampleScenario.node[645].veinsmobility 	stopTime 	2000
scalar RSUExampleScenario.node[645].veinsmobility 	minSpeed 	0.25857564761397
scalar RSUExampleScenario.node[645].veinsmobility 	maxSpeed 	13.999663794225
scalar RSUExampleScenario.node[645].veinsmobility 	totalDistance 	748.84877390661
scalar RSUExampleScenario.node[645].veinsmobility 	totalCO2Emission 	195.61191444158
scalar RSUExampleScenario.node[646].veinsmobility 	startTime 	1938.1
scalar RSUExampleScenario.node[646].veinsmobility 	totalTime 	61.8
scalar RSUExampleScenario.node[646].veinsmobility 	stopTime 	2000
scalar RSUExampleScenario.node[646].veinsmobility 	minSpeed 	0.25676389327087
scalar RSUExampleScenario.node[646].veinsmobility 	maxSpeed 	13.999761792815
scalar RSUExampleScenario.node[646].veinsmobility 	totalDistance 	706.59942695737
scalar RSUExampleScenario.node[646].veinsmobility 	totalCO2Emission 	185.42233578795
scalar RSUExampleScenario.node[647].veinsmobility 	startTime 	1941.1
scalar RSUExampleScenario.node[647].veinsmobility 	totalTime 	58.8
scalar RSUExampleScenario.node[647].veinsmobility 	stopTime 	2000
scalar RSUExampleScenario.node[647].veinsmobility 	minSpeed 	0.25099555897014
scalar RSUExampleScenario.node[647].veinsmobility 	maxSpeed 	13.998300242778
scalar RSUExampleScenario.node[647].veinsmobility 	totalDistance 	665.12064441745
scalar RSUExampleScenario.node[647].veinsmobility 	totalCO2Emission 	179.63364440151
scalar RSUExampleScenario.node[648].veinsmobility 	startTime 	1944.1
scalar RSUExampleScenario.node[648].veinsmobility 	totalTime 	55.8
scalar RSUExampleScenario.node[648].veinsmobility 	stopTime 	2000
scalar RSUExampleScenario.node[648].veinsmobility 	minSpeed 	0.25098554774071
scalar RSUExampleScenario.node[648].veinsmobility 	maxSpeed 	13.99834260267
scalar RSUExampleScenario.node[648].veinsmobility 	totalDistance 	623.36121371464
scalar RSUExampleScenario.node[648].veinsmobility 	totalCO2Emission 	170.84900409823
scalar RSUExampleScenario.node[649].veinsmobility 	startTime 	1947.1
scalar RSUExampleScenario.node[649].veinsmobility 	totalTime 	52.8
scalar RSUExampleScenario.node[649].veinsmobility 	stopTime 	2000
scalar RSUExampleScenario.node[649].veinsmobility 	minSpeed 	0.2587323896531
scalar RSUExampleScenario.node[649].veinsmobility 	maxSpeed 	13.998744291866
scalar RSUExampleScenario.node[649].veinsmobility 	totalDistance 	582.79207084745
scalar RSUExampleScenario.node[649].veinsmobility 	totalCO2Emission 	163.29978640359
scalar RSUExampleScenario.node[650].veinsmobility 	startTime 	1950.1
scalar RSUExampleScenario.node[650].veinsmobility 	totalTime 	49.8
scalar RSUExampleScenario.node[650].veinsmobility 	stopTime 	2000
scalar RSUExampleScenario.node[650].veinsmobility 	minSpeed 	0.25910563973873
scalar RSUExampleScenario.node[650].veinsmobility 	maxSpeed 	13.997282244677
scalar RSUExampleScenario.node[650].veinsmobility 	totalDistance 	538.54845494219
scalar RSUExampleScenario.node[650].veinsmobility 	totalCO2Emission 	158.00734176075
scalar RSUExampleScenario.node[651].veinsmobility 	startTime 	1953.1
scalar RSUExampleScenario.node[651].veinsmobility 	totalTime 	46.8
scalar RSUExampleScenario.node[651].veinsmobility 	stopTime 	2000
scalar RSUExampleScenario.node[651].veinsmobility 	minSpeed 	0.25355171388527
scalar RSUExampleScenario.node[651].veinsmobility 	maxSpeed 	13.999966814274
scalar RSUExampleScenario.node[651].veinsmobility 	totalDistance 	495.50968784178
scalar RSUExampleScenario.node[651].veinsmobility 	totalCO2Emission 	151.43198180403
scalar RSUExampleScenario.node[652].veinsmobility 	startTime 	1956.1
scalar RSUExampleScenario.node[652].veinsmobility 	totalTime 	43.8
scalar RSUExampleScenario.node[652].veinsmobility 	stopTime 	2000
scalar RSUExampleScenario.node[652].veinsmobility 	minSpeed 	0.25334964301926
scalar RSUExampleScenario.node[652].veinsmobility 	maxSpeed 	13.99987630931
scalar RSUExampleScenario.node[652].veinsmobility 	totalDistance 	454.2504148678
scalar RSUExampleScenario.node[652].veinsmobility 	totalCO2Emission 	142.94185746902
scalar RSUExampleScenario.node[653].veinsmobility 	startTime 	1959.1
scalar RSUExampleScenario.node[653].veinsmobility 	totalTime 	40.8
scalar RSUExampleScenario.node[653].veinsmobility 	stopTime 	2000
scalar RSUExampleScenario.node[653].veinsmobility 	minSpeed 	0.254809954233
scalar RSUExampleScenario.node[653].veinsmobility 	maxSpeed 	13.999256762639
scalar RSUExampleScenario.node[653].veinsmobility 	totalDistance 	412.38939648999
scalar RSUExampleScenario.node[653].veinsmobility 	totalCO2Emission 	137.01575211147
scalar RSUExampleScenario.node[654].veinsmobility 	startTime 	1962.1
scalar RSUExampleScenario.node[654].veinsmobility 	totalTime 	37.8
scalar RSUExampleScenario.node[654].veinsmobility 	stopTime 	2000
scalar RSUExampleScenario.node[654].veinsmobility 	minSpeed 	0.25171557947434
scalar RSUExampleScenario.node[654].veinsmobility 	maxSpeed 	13.999054418111
scalar RSUExampleScenario.node[654].veinsmobility 	totalDistance 	372.61746038893
scalar RSUExampleScenario.node[654].veinsmobility 	totalCO2Emission 	129.35256713877
scalar RSUExampleScenario.node[655].veinsmobility 	startTime 	1965.1
scalar RSUExampleScenario.node[655].veinsmobility 	totalTime 	34.8
scalar RSUExampleScenario.node[655].veinsmobility 	stopTime 	2000
scalar RSUExampleScenario.node[655].veinsmobility 	minSpeed 	0.25318710670131
scalar RSUExampleScenario.node[655].veinsmobility 	maxSpeed 	13.99944962451
scalar RSUExampleScenario.node[655].veinsmobility 	totalDistance 	330.46187972258
scalar RSUExampleScenario.node[655].veinsmobility 	totalCO2Emission 	121.41737046577
scalar RSUExampleScenario.node[656].veinsmobility 	startTime 	1968.1
scalar RSUExampleScenario.node[656].veinsmobility 	totalTime 	31.8
scalar RSUExampleScenario.node[656].veinsmobility 	stopTime 	2000
scalar RSUExampleScenario.node[656].veinsmobility 	minSpeed 	0.24890424586134
scalar RSUExampleScenario.node[656].veinsmobility 	maxSpeed 	13.977119512022
scalar RSUExampleScenario.node[656].veinsmobility 	totalDistance 	288.99600076093
scalar RSUExampleScenario.node[656].veinsmobility 	totalCO2Emission 	115.10299332061
scalar RSUExampleScenario.node[657].veinsmobility 	startTime 	1971.1
scalar RSUExampleScenario.node[657].veinsmobility 	totalTime 	28.8
scalar RSUExampleScenario.node[657].veinsmobility 	stopTime 	2000
scalar RSUExampleScenario.node[657].veinsmobility 	minSpeed 	0.25184210278792
scalar RSUExampleScenario.node[657].veinsmobility 	maxSpeed 	13.888237163452
scalar RSUExampleScenario.node[657].veinsmobility 	totalDistance 	249.22152376341
scalar RSUExampleScenario.node[657].veinsmobility 	totalCO2Emission 	99.236399001664
scalar RSUExampleScenario.node[658].veinsmobility 	startTime 	1974.1
scalar RSUExampleScenario.node[658].veinsmobility 	totalTime 	25.8
scalar RSUExampleScenario.node[658].veinsmobility 	stopTime 	2000
scalar RSUExampleScenario.node[658].veinsmobility 	minSpeed 	0.25288160889107
scalar RSUExampleScenario.node[658].veinsmobility 	maxSpeed 	13.887210222071
scalar RSUExampleScenario.node[658].veinsmobility 	totalDistance 	225.94663125146
scalar RSUExampleScenario.node[658].veinsmobility 	totalCO2Emission 	82.929989261875
scalar RSUExampleScenario.node[659].veinsmobility 	startTime 	1977.1
scalar RSUExampleScenario.node[659].veinsmobility 	totalTime 	22.8
scalar RSUExampleScenario.node[659].veinsmobility 	stopTime 	2000
scalar RSUExampleScenario.node[659].veinsmobility 	minSpeed 	0.25504289002786
scalar RSUExampleScenario.node[659].veinsmobility 	maxSpeed 	13.884711590514
scalar RSUExampleScenario.node[659].veinsmobility 	totalDistance 	208.21929931209
scalar RSUExampleScenario.node[659].veinsmobility 	totalCO2Emission 	78.596262455085
scalar RSUExampleScenario.node[660].veinsmobility 	startTime 	1980.1
scalar RSUExampleScenario.node[660].veinsmobility 	totalTime 	19.8
scalar RSUExampleScenario.node[660].veinsmobility 	stopTime 	2000
scalar RSUExampleScenario.node[660].veinsmobility 	minSpeed 	0.24879924557218
scalar RSUExampleScenario.node[660].veinsmobility 	maxSpeed 	13.888576287788
scalar RSUExampleScenario.node[660].veinsmobility 	totalDistance 	174.26146927862
scalar RSUExampleScenario.node[660].veinsmobility 	totalCO2Emission 	75.104293783904
scalar RSUExampleScenario.node[661].veinsmobility 	startTime 	1983.1
scalar RSUExampleScenario.node[661].veinsmobility 	totalTime 	16.8
scalar RSUExampleScenario.node[661].veinsmobility 	stopTime 	2000
scalar RSUExampleScenario.node[661].veinsmobility 	minSpeed 	0.25619175576046
scalar RSUExampleScenario.node[661].veinsmobility 	maxSpeed 	13.87927971248
scalar RSUExampleScenario.node[661].veinsmobility 	totalDistance 	136.88036054478
scalar RSUExampleScenario.node[661].veinsmobility 	totalCO2Emission 	57.40101366045
scalar RSUExampleScenario.node[662].veinsmobility 	startTime 	1986.1
scalar RSUExampleScenario.node[662].veinsmobility 	totalTime 	13.8
scalar RSUExampleScenario.node[662].veinsmobility 	stopTime 	2000
scalar RSUExampleScenario.node[662].veinsmobility 	minSpeed 	0.25005856591486
scalar RSUExampleScenario.node[662].veinsmobility 	maxSpeed 	13.88465271529
scalar RSUExampleScenario.node[662].veinsmobility 	totalDistance 	116.80229906691
scalar RSUExampleScenario.node[662].veinsmobility 	totalCO2Emission 	43.053041388538
scalar RSUExampleScenario.node[663].veinsmobility 	startTime 	1989.1
scalar RSUExampleScenario.node[663].veinsmobility 	totalTime 	10.8
scalar RSUExampleScenario.node[663].veinsmobility 	stopTime 	2000
scalar RSUExampleScenario.node[663].veinsmobility 	minSpeed 	0.25037606237154
scalar RSUExampleScenario.node[663].veinsmobility 	maxSpeed 	13.88989135613
scalar RSUExampleScenario.node[663].veinsmobility 	totalDistance 	96.891063952679
scalar RSUExampleScenario.node[663].veinsmobility 	totalCO2Emission 	39.478411101447
scalar RSUExampleScenario.node[664].veinsmobility 	startTime 	1992.1
scalar RSUExampleScenario.node[664].veinsmobility 	totalTime 	7.8
scalar RSUExampleScenario.node[664].veinsmobility 	stopTime 	2000
scalar RSUExampleScenario.node[664].veinsmobility 	minSpeed 	0.25204087820603
scalar RSUExampleScenario.node[664].veinsmobility 	maxSpeed 	13.857612241674
scalar RSUExampleScenario.node[664].veinsmobility 	totalDistance 	60.631600839937
scalar RSUExampleScenario.node[664].veinsmobility 	totalCO2Emission 	35.771599750365
scalar RSUExampleScenario.node[665].veinsmobility 	startTime 	1995.1
scalar RSUExampleScenario.node[665].veinsmobility 	totalTime 	4.8
scalar RSUExampleScenario.node[665].veinsmobility 	stopTime 	2000
scalar RSUExampleScenario.node[665].veinsmobility 	minSpeed 	0.24961467702943
scalar RSUExampleScenario.node[665].veinsmobility 	maxSpeed 	9.8709781405552
scalar RSUExampleScenario.node[665].veinsmobility 	totalDistance 	25.035971579408
scalar RSUExampleScenario.node[665].veinsmobility 	totalCO2Emission 	18.518916579704
scalar RSUExampleScenario.node[666].veinsmobility 	startTime 	1998.1
scalar RSUExampleScenario.node[666].veinsmobility 	totalTime 	1.8
scalar RSUExampleScenario.node[666].veinsmobility 	stopTime 	2000
scalar RSUExampleScenario.node[666].veinsmobility 	minSpeed 	0.25737559330603
scalar RSUExampleScenario.node[666].veinsmobility 	maxSpeed 	3.5694003250653
scalar RSUExampleScenario.node[666].veinsmobility 	totalDistance 	3.6070815092482
scalar RSUExampleScenario.node[666].veinsmobility 	totalCO2Emission 	3.6697060839722
