version 2
run statistic-1919-20150306-11:10:01-16320
attr c 4
attr configname statistic
attr datetime 20150306-11:10:01
attr experiment statistic
attr inifile omnetpp.ini
attr iterationvars "$p=1/2, $c=4"
attr iterationvars2 "$p=1/2, $c=4, $repetition=19"
attr measurement "$p=1/2, $c=4"
attr network RSUExampleScenario
attr p 1/2
attr processid 16320
attr repetition 19
attr replication #19
attr resultdir results
attr runnumber 1919
attr seedset 1919

scalar . 	c 	4
scalar RSUExampleScenario.rsu[0].appl 	NumberofCH 	45
scalar RSUExampleScenario.rsu[0].appl 	NumberofON 	53
scalar RSUExampleScenario.rsu[0].appl 	NumberofFN 	2
scalar RSUExampleScenario.rsu[0].appl 	meanClusterNodes 	1.1777777777778
scalar RSUExampleScenario.rsu[0].appl 	varClusterNodes 	1.1792443699041
scalar RSUExampleScenario.rsu[0].appl 	GSScycles 	3
