version 2
run statisticRVV-242-20150326-11:10:19-9732
attr c 14
attr configname statisticRVV
attr datetime 20150326-11:10:19
attr experiment statisticRVV
attr inifile omnetpp.ini
attr iterationvars "$sc=\"erlangen-high.launchd.xml\", $p=1/15, $c=14"
attr iterationvars2 "$sc=\"erlangen-high.launchd.xml\", $p=1/15, $c=14, $repetition=2"
attr measurement "$sc=\"erlangen-high.launchd.xml\", $p=1/15, $c=14"
attr network RSUExampleScenario
attr p 1/15
attr processid 9732
attr repetition 2
attr replication #2
attr resultdir results
attr runnumber 242
attr sc "\"erlangen-high.launchd.xml\""
attr seedset 242

scalar . 	c 	14
scalar RSUExampleScenario.node[0].veinsmobility 	startTime 	0.1
scalar RSUExampleScenario.node[0].veinsmobility 	totalTime 	354.2
scalar RSUExampleScenario.node[0].veinsmobility 	stopTime 	354.4
scalar RSUExampleScenario.node[0].veinsmobility 	minSpeed 	0.25109907607967
scalar RSUExampleScenario.node[0].veinsmobility 	maxSpeed 	9.9999281906011
scalar RSUExampleScenario.node[0].veinsmobility 	totalDistance 	3409.8045320365
scalar RSUExampleScenario.node[0].veinsmobility 	totalCO2Emission 	723.70767136585
scalar RSUExampleScenario.node[1].veinsmobility 	startTime 	2.2
scalar RSUExampleScenario.node[1].veinsmobility 	totalTime 	355.3
scalar RSUExampleScenario.node[1].veinsmobility 	stopTime 	357.6
scalar RSUExampleScenario.node[1].veinsmobility 	minSpeed 	0.2476860899704
scalar RSUExampleScenario.node[1].veinsmobility 	maxSpeed 	9.9999986221711
scalar RSUExampleScenario.node[1].veinsmobility 	totalDistance 	3414.2083147703
scalar RSUExampleScenario.node[1].veinsmobility 	totalCO2Emission 	725.73254019553
scalar RSUExampleScenario.node[2].veinsmobility 	startTime 	4.3
scalar RSUExampleScenario.node[2].veinsmobility 	totalTime 	356.4
scalar RSUExampleScenario.node[2].veinsmobility 	stopTime 	360.8
scalar RSUExampleScenario.node[2].veinsmobility 	minSpeed 	0.25941232892708
scalar RSUExampleScenario.node[2].veinsmobility 	maxSpeed 	9.9999318935256
scalar RSUExampleScenario.node[2].veinsmobility 	totalDistance 	3409.9509904108
scalar RSUExampleScenario.node[2].veinsmobility 	totalCO2Emission 	725.59846364755
scalar RSUExampleScenario.node[3].veinsmobility 	startTime 	6.4
scalar RSUExampleScenario.node[3].veinsmobility 	totalTime 	357.4
scalar RSUExampleScenario.node[3].veinsmobility 	stopTime 	363.9
scalar RSUExampleScenario.node[3].veinsmobility 	minSpeed 	0.24797987443116
scalar RSUExampleScenario.node[3].veinsmobility 	maxSpeed 	9.999961669473
scalar RSUExampleScenario.node[3].veinsmobility 	totalDistance 	3414.11790897
scalar RSUExampleScenario.node[3].veinsmobility 	totalCO2Emission 	726.47214554733
scalar RSUExampleScenario.node[4].veinsmobility 	startTime 	8.5
scalar RSUExampleScenario.node[4].veinsmobility 	totalTime 	358.5
scalar RSUExampleScenario.node[4].veinsmobility 	stopTime 	367.1
scalar RSUExampleScenario.node[4].veinsmobility 	minSpeed 	0.25901255557337
scalar RSUExampleScenario.node[4].veinsmobility 	maxSpeed 	9.999976339608
scalar RSUExampleScenario.node[4].veinsmobility 	totalDistance 	3409.5863588485
scalar RSUExampleScenario.node[4].veinsmobility 	totalCO2Emission 	727.61054594998
scalar RSUExampleScenario.node[5].veinsmobility 	startTime 	10.7
scalar RSUExampleScenario.node[5].veinsmobility 	totalTime 	359.6
scalar RSUExampleScenario.node[5].veinsmobility 	stopTime 	370.4
scalar RSUExampleScenario.node[5].veinsmobility 	minSpeed 	0.25512011050992
scalar RSUExampleScenario.node[5].veinsmobility 	maxSpeed 	9.9999960572924
scalar RSUExampleScenario.node[5].veinsmobility 	totalDistance 	3419.5279988131
scalar RSUExampleScenario.node[5].veinsmobility 	totalCO2Emission 	728.31039958505
scalar RSUExampleScenario.node[6].veinsmobility 	startTime 	12.9
scalar RSUExampleScenario.node[6].veinsmobility 	totalTime 	360.8
scalar RSUExampleScenario.node[6].veinsmobility 	stopTime 	373.8
scalar RSUExampleScenario.node[6].veinsmobility 	minSpeed 	0.25722724960023
scalar RSUExampleScenario.node[6].veinsmobility 	maxSpeed 	9.9999577406282
scalar RSUExampleScenario.node[6].veinsmobility 	totalDistance 	3413.7298355453
scalar RSUExampleScenario.node[6].veinsmobility 	totalCO2Emission 	724.32153987545
scalar RSUExampleScenario.node[7].veinsmobility 	startTime 	15.1
scalar RSUExampleScenario.node[7].veinsmobility 	totalTime 	362.1
scalar RSUExampleScenario.node[7].veinsmobility 	stopTime 	377.3
scalar RSUExampleScenario.node[7].veinsmobility 	minSpeed 	0.2568926888383
scalar RSUExampleScenario.node[7].veinsmobility 	maxSpeed 	9.9999730235385
scalar RSUExampleScenario.node[7].veinsmobility 	totalDistance 	3409.6030926092
scalar RSUExampleScenario.node[7].veinsmobility 	totalCO2Emission 	726.36080039654
scalar RSUExampleScenario.node[8].veinsmobility 	startTime 	17.2
scalar RSUExampleScenario.node[8].veinsmobility 	totalTime 	363.6
scalar RSUExampleScenario.node[8].veinsmobility 	stopTime 	380.9
scalar RSUExampleScenario.node[8].veinsmobility 	minSpeed 	0.25191511498811
scalar RSUExampleScenario.node[8].veinsmobility 	maxSpeed 	9.9999996474688
scalar RSUExampleScenario.node[8].veinsmobility 	totalDistance 	3419.2009892671
scalar RSUExampleScenario.node[8].veinsmobility 	totalCO2Emission 	728.73529004688
scalar RSUExampleScenario.node[9].veinsmobility 	startTime 	19.4
scalar RSUExampleScenario.node[9].veinsmobility 	totalTime 	365.1
scalar RSUExampleScenario.node[9].veinsmobility 	stopTime 	384.6
scalar RSUExampleScenario.node[9].veinsmobility 	minSpeed 	0.25415459161741
scalar RSUExampleScenario.node[9].veinsmobility 	maxSpeed 	9.9999978896859
scalar RSUExampleScenario.node[9].veinsmobility 	totalDistance 	3409.7137220445
scalar RSUExampleScenario.node[9].veinsmobility 	totalCO2Emission 	729.42504164677
scalar RSUExampleScenario.node[10].veinsmobility 	startTime 	21.5
scalar RSUExampleScenario.node[10].veinsmobility 	totalTime 	366.7
scalar RSUExampleScenario.node[10].veinsmobility 	stopTime 	388.3
scalar RSUExampleScenario.node[10].veinsmobility 	minSpeed 	0.24810193671915
scalar RSUExampleScenario.node[10].veinsmobility 	maxSpeed 	9.9999675824144
scalar RSUExampleScenario.node[10].veinsmobility 	totalDistance 	3418.7318667798
scalar RSUExampleScenario.node[10].veinsmobility 	totalCO2Emission 	731.12186183965
scalar RSUExampleScenario.node[11].veinsmobility 	startTime 	23.7
scalar RSUExampleScenario.node[11].veinsmobility 	totalTime 	368.1
scalar RSUExampleScenario.node[11].veinsmobility 	stopTime 	391.9
scalar RSUExampleScenario.node[11].veinsmobility 	minSpeed 	0.2554468313707
scalar RSUExampleScenario.node[11].veinsmobility 	maxSpeed 	9.9999870771146
scalar RSUExampleScenario.node[11].veinsmobility 	totalDistance 	3409.4263721991
scalar RSUExampleScenario.node[11].veinsmobility 	totalCO2Emission 	731.92641328243
scalar RSUExampleScenario.node[12].veinsmobility 	startTime 	25.9
scalar RSUExampleScenario.node[12].veinsmobility 	totalTime 	369.7
scalar RSUExampleScenario.node[12].veinsmobility 	stopTime 	395.7
scalar RSUExampleScenario.node[12].veinsmobility 	minSpeed 	0.25285590845509
scalar RSUExampleScenario.node[12].veinsmobility 	maxSpeed 	9.9998972434038
scalar RSUExampleScenario.node[12].veinsmobility 	totalDistance 	3419.1125512057
scalar RSUExampleScenario.node[12].veinsmobility 	totalCO2Emission 	733.50869118329
scalar RSUExampleScenario.node[13].veinsmobility 	startTime 	28
scalar RSUExampleScenario.node[13].veinsmobility 	totalTime 	371.3
scalar RSUExampleScenario.node[13].veinsmobility 	stopTime 	399.4
scalar RSUExampleScenario.node[13].veinsmobility 	minSpeed 	0.24833389763976
scalar RSUExampleScenario.node[13].veinsmobility 	maxSpeed 	9.9999535230268
scalar RSUExampleScenario.node[13].veinsmobility 	totalDistance 	3410.0959152967
scalar RSUExampleScenario.node[13].veinsmobility 	totalCO2Emission 	733.12470028489
scalar RSUExampleScenario.node[14].veinsmobility 	startTime 	30.1
scalar RSUExampleScenario.node[14].veinsmobility 	totalTime 	373
scalar RSUExampleScenario.node[14].veinsmobility 	stopTime 	403.2
scalar RSUExampleScenario.node[14].veinsmobility 	minSpeed 	0.25077774157608
scalar RSUExampleScenario.node[14].veinsmobility 	maxSpeed 	9.9999700633599
scalar RSUExampleScenario.node[14].veinsmobility 	totalDistance 	3418.8877784681
scalar RSUExampleScenario.node[14].veinsmobility 	totalCO2Emission 	733.74160345929
scalar RSUExampleScenario.node[15].veinsmobility 	startTime 	32.2
scalar RSUExampleScenario.node[15].veinsmobility 	totalTime 	374.6
scalar RSUExampleScenario.node[15].veinsmobility 	stopTime 	406.9
scalar RSUExampleScenario.node[15].veinsmobility 	minSpeed 	0.25735166009655
scalar RSUExampleScenario.node[15].veinsmobility 	maxSpeed 	9.9998329514521
scalar RSUExampleScenario.node[15].veinsmobility 	totalDistance 	3409.6968476112
scalar RSUExampleScenario.node[15].veinsmobility 	totalCO2Emission 	736.19724179682
scalar RSUExampleScenario.node[16].veinsmobility 	startTime 	34.4
scalar RSUExampleScenario.node[16].veinsmobility 	totalTime 	376.1
scalar RSUExampleScenario.node[16].veinsmobility 	stopTime 	410.6
scalar RSUExampleScenario.node[16].veinsmobility 	minSpeed 	0.25604337595706
scalar RSUExampleScenario.node[16].veinsmobility 	maxSpeed 	9.9999495409708
scalar RSUExampleScenario.node[16].veinsmobility 	totalDistance 	3418.8501163763
scalar RSUExampleScenario.node[16].veinsmobility 	totalCO2Emission 	738.02830129247
scalar RSUExampleScenario.node[17].veinsmobility 	startTime 	36.5
scalar RSUExampleScenario.node[17].veinsmobility 	totalTime 	377.8
scalar RSUExampleScenario.node[17].veinsmobility 	stopTime 	414.4
scalar RSUExampleScenario.node[17].veinsmobility 	minSpeed 	0.25614101424022
scalar RSUExampleScenario.node[17].veinsmobility 	maxSpeed 	9.9999918240123
scalar RSUExampleScenario.node[17].veinsmobility 	totalDistance 	3410.2948135988
scalar RSUExampleScenario.node[17].veinsmobility 	totalCO2Emission 	743.3303262441
scalar RSUExampleScenario.node[18].veinsmobility 	startTime 	38.6
scalar RSUExampleScenario.node[18].veinsmobility 	totalTime 	379.5
scalar RSUExampleScenario.node[18].veinsmobility 	stopTime 	418.2
scalar RSUExampleScenario.node[18].veinsmobility 	minSpeed 	0.25631891224696
scalar RSUExampleScenario.node[18].veinsmobility 	maxSpeed 	9.9999709063233
scalar RSUExampleScenario.node[18].veinsmobility 	totalDistance 	3419.4073486827
scalar RSUExampleScenario.node[18].veinsmobility 	totalCO2Emission 	745.03482411588
scalar RSUExampleScenario.node[19].veinsmobility 	startTime 	40.7
scalar RSUExampleScenario.node[19].veinsmobility 	totalTime 	381.1
scalar RSUExampleScenario.node[19].veinsmobility 	stopTime 	421.9
scalar RSUExampleScenario.node[19].veinsmobility 	minSpeed 	0.25863177260687
scalar RSUExampleScenario.node[19].veinsmobility 	maxSpeed 	9.9999807647266
scalar RSUExampleScenario.node[19].veinsmobility 	totalDistance 	3409.5771499709
scalar RSUExampleScenario.node[19].veinsmobility 	totalCO2Emission 	746.90527511234
scalar RSUExampleScenario.node[20].veinsmobility 	startTime 	42.8
scalar RSUExampleScenario.node[20].veinsmobility 	totalTime 	382.7
scalar RSUExampleScenario.node[20].veinsmobility 	stopTime 	425.6
scalar RSUExampleScenario.node[20].veinsmobility 	minSpeed 	0.25052335068118
scalar RSUExampleScenario.node[20].veinsmobility 	maxSpeed 	9.9999896372715
scalar RSUExampleScenario.node[20].veinsmobility 	totalDistance 	3418.9539103362
scalar RSUExampleScenario.node[20].veinsmobility 	totalCO2Emission 	748.33965480652
scalar RSUExampleScenario.node[21].veinsmobility 	startTime 	44.9
scalar RSUExampleScenario.node[21].veinsmobility 	totalTime 	384.3
scalar RSUExampleScenario.node[21].veinsmobility 	stopTime 	429.3
scalar RSUExampleScenario.node[21].veinsmobility 	minSpeed 	0.25353266992676
scalar RSUExampleScenario.node[21].veinsmobility 	maxSpeed 	9.999956280652
scalar RSUExampleScenario.node[21].veinsmobility 	totalDistance 	3409.6446990259
scalar RSUExampleScenario.node[21].veinsmobility 	totalCO2Emission 	746.98500827687
scalar RSUExampleScenario.node[22].veinsmobility 	startTime 	47.1
scalar RSUExampleScenario.node[22].veinsmobility 	totalTime 	385.8
scalar RSUExampleScenario.node[22].veinsmobility 	stopTime 	433
scalar RSUExampleScenario.node[22].veinsmobility 	minSpeed 	0.2543240662259
scalar RSUExampleScenario.node[22].veinsmobility 	maxSpeed 	9.999983407273
scalar RSUExampleScenario.node[22].veinsmobility 	totalDistance 	3418.9653336664
scalar RSUExampleScenario.node[22].veinsmobility 	totalCO2Emission 	747.34062422944
scalar RSUExampleScenario.node[23].veinsmobility 	startTime 	49.2
scalar RSUExampleScenario.node[23].veinsmobility 	totalTime 	387.4
scalar RSUExampleScenario.node[23].veinsmobility 	stopTime 	436.7
scalar RSUExampleScenario.node[23].veinsmobility 	minSpeed 	0.24859560726653
scalar RSUExampleScenario.node[23].veinsmobility 	maxSpeed 	9.9999972983403
scalar RSUExampleScenario.node[23].veinsmobility 	totalDistance 	3410.125512816
scalar RSUExampleScenario.node[23].veinsmobility 	totalCO2Emission 	751.1564115275
scalar RSUExampleScenario.node[24].veinsmobility 	startTime 	51.4
scalar RSUExampleScenario.node[24].veinsmobility 	totalTime 	388.9
scalar RSUExampleScenario.node[24].veinsmobility 	stopTime 	440.4
scalar RSUExampleScenario.node[24].veinsmobility 	minSpeed 	0.24747526669316
scalar RSUExampleScenario.node[24].veinsmobility 	maxSpeed 	9.9997564045386
scalar RSUExampleScenario.node[24].veinsmobility 	totalDistance 	3419.2442766472
scalar RSUExampleScenario.node[24].veinsmobility 	totalCO2Emission 	750.29129394118
scalar RSUExampleScenario.node[25].veinsmobility 	startTime 	53.6
scalar RSUExampleScenario.node[25].veinsmobility 	totalTime 	390.4
scalar RSUExampleScenario.node[25].veinsmobility 	stopTime 	444.1
scalar RSUExampleScenario.node[25].veinsmobility 	minSpeed 	0.25879936473444
scalar RSUExampleScenario.node[25].veinsmobility 	maxSpeed 	9.9999795443215
scalar RSUExampleScenario.node[25].veinsmobility 	totalDistance 	3410.3202692083
scalar RSUExampleScenario.node[25].veinsmobility 	totalCO2Emission 	757.72520253424
scalar RSUExampleScenario.node[26].veinsmobility 	startTime 	55.7
scalar RSUExampleScenario.node[26].veinsmobility 	totalTime 	392
scalar RSUExampleScenario.node[26].veinsmobility 	stopTime 	447.8
scalar RSUExampleScenario.node[26].veinsmobility 	minSpeed 	0.25724447276094
scalar RSUExampleScenario.node[26].veinsmobility 	maxSpeed 	9.9999795451085
scalar RSUExampleScenario.node[26].veinsmobility 	totalDistance 	3419.0921515474
scalar RSUExampleScenario.node[26].veinsmobility 	totalCO2Emission 	755.14511734591
scalar RSUExampleScenario.node[27].veinsmobility 	startTime 	57.8
scalar RSUExampleScenario.node[27].veinsmobility 	totalTime 	393.6
scalar RSUExampleScenario.node[27].veinsmobility 	stopTime 	451.5
scalar RSUExampleScenario.node[27].veinsmobility 	minSpeed 	0.25025567179034
scalar RSUExampleScenario.node[27].veinsmobility 	maxSpeed 	9.9999747195747
scalar RSUExampleScenario.node[27].veinsmobility 	totalDistance 	3410.0123455374
scalar RSUExampleScenario.node[27].veinsmobility 	totalCO2Emission 	752.6180066198
scalar RSUExampleScenario.node[28].veinsmobility 	startTime 	59.9
scalar RSUExampleScenario.node[28].veinsmobility 	totalTime 	395.2
scalar RSUExampleScenario.node[28].veinsmobility 	stopTime 	455.2
scalar RSUExampleScenario.node[28].veinsmobility 	minSpeed 	0.25897413042863
scalar RSUExampleScenario.node[28].veinsmobility 	maxSpeed 	9.9999749548477
scalar RSUExampleScenario.node[28].veinsmobility 	totalDistance 	3419.1593447919
scalar RSUExampleScenario.node[28].veinsmobility 	totalCO2Emission 	759.7993969723
scalar RSUExampleScenario.node[29].veinsmobility 	startTime 	62
scalar RSUExampleScenario.node[29].veinsmobility 	totalTime 	396.8
scalar RSUExampleScenario.node[29].veinsmobility 	stopTime 	458.9
scalar RSUExampleScenario.node[29].veinsmobility 	minSpeed 	0.25694654665631
scalar RSUExampleScenario.node[29].veinsmobility 	maxSpeed 	9.9999806379946
scalar RSUExampleScenario.node[29].veinsmobility 	totalDistance 	3410.1178909039
scalar RSUExampleScenario.node[29].veinsmobility 	totalCO2Emission 	764.02122833408
scalar RSUExampleScenario.node[30].veinsmobility 	startTime 	64.1
scalar RSUExampleScenario.node[30].veinsmobility 	totalTime 	398.4
scalar RSUExampleScenario.node[30].veinsmobility 	stopTime 	462.6
scalar RSUExampleScenario.node[30].veinsmobility 	minSpeed 	0.24980523914238
scalar RSUExampleScenario.node[30].veinsmobility 	maxSpeed 	9.9999686545669
scalar RSUExampleScenario.node[30].veinsmobility 	totalDistance 	3419.0135335181
scalar RSUExampleScenario.node[30].veinsmobility 	totalCO2Emission 	759.96583184156
scalar RSUExampleScenario.node[31].veinsmobility 	startTime 	66.3
scalar RSUExampleScenario.node[31].veinsmobility 	totalTime 	400
scalar RSUExampleScenario.node[31].veinsmobility 	stopTime 	466.4
scalar RSUExampleScenario.node[31].veinsmobility 	minSpeed 	0.25872541798605
scalar RSUExampleScenario.node[31].veinsmobility 	maxSpeed 	9.9999259337899
scalar RSUExampleScenario.node[31].veinsmobility 	totalDistance 	3410.184253987
scalar RSUExampleScenario.node[31].veinsmobility 	totalCO2Emission 	764.14403579426
scalar RSUExampleScenario.node[32].veinsmobility 	startTime 	68.4
scalar RSUExampleScenario.node[32].veinsmobility 	totalTime 	401.7
scalar RSUExampleScenario.node[32].veinsmobility 	stopTime 	470.2
scalar RSUExampleScenario.node[32].veinsmobility 	minSpeed 	0.25854331552028
scalar RSUExampleScenario.node[32].veinsmobility 	maxSpeed 	9.9999885601248
scalar RSUExampleScenario.node[32].veinsmobility 	totalDistance 	3419.3805331038
scalar RSUExampleScenario.node[32].veinsmobility 	totalCO2Emission 	766.19497674817
scalar RSUExampleScenario.node[33].veinsmobility 	startTime 	70.5
scalar RSUExampleScenario.node[33].veinsmobility 	totalTime 	403.3
scalar RSUExampleScenario.node[33].veinsmobility 	stopTime 	473.9
scalar RSUExampleScenario.node[33].veinsmobility 	minSpeed 	0.2582986757257
scalar RSUExampleScenario.node[33].veinsmobility 	maxSpeed 	9.9999906607531
scalar RSUExampleScenario.node[33].veinsmobility 	totalDistance 	3409.8911600063
scalar RSUExampleScenario.node[33].veinsmobility 	totalCO2Emission 	766.38388482362
scalar RSUExampleScenario.node[34].veinsmobility 	startTime 	72.6
scalar RSUExampleScenario.node[34].veinsmobility 	totalTime 	404.9
scalar RSUExampleScenario.node[34].veinsmobility 	stopTime 	477.6
scalar RSUExampleScenario.node[34].veinsmobility 	minSpeed 	0.25955547931581
scalar RSUExampleScenario.node[34].veinsmobility 	maxSpeed 	9.9999457723042
scalar RSUExampleScenario.node[34].veinsmobility 	totalDistance 	3419.2715662052
scalar RSUExampleScenario.node[34].veinsmobility 	totalCO2Emission 	768.62638086979
scalar RSUExampleScenario.node[35].veinsmobility 	startTime 	74.7
scalar RSUExampleScenario.node[35].veinsmobility 	totalTime 	406.6
scalar RSUExampleScenario.node[35].veinsmobility 	stopTime 	481.4
scalar RSUExampleScenario.node[35].veinsmobility 	minSpeed 	0.25174405539967
scalar RSUExampleScenario.node[35].veinsmobility 	maxSpeed 	9.9999329978833
scalar RSUExampleScenario.node[35].veinsmobility 	totalDistance 	3410.4533053073
scalar RSUExampleScenario.node[35].veinsmobility 	totalCO2Emission 	772.67704371891
scalar RSUExampleScenario.node[36].veinsmobility 	startTime 	76.9
scalar RSUExampleScenario.node[36].veinsmobility 	totalTime 	408.1
scalar RSUExampleScenario.node[36].veinsmobility 	stopTime 	485.1
scalar RSUExampleScenario.node[36].veinsmobility 	minSpeed 	0.24752090408397
scalar RSUExampleScenario.node[36].veinsmobility 	maxSpeed 	9.9999929364817
scalar RSUExampleScenario.node[36].veinsmobility 	totalDistance 	3419.5939818337
scalar RSUExampleScenario.node[36].veinsmobility 	totalCO2Emission 	771.4349474399
scalar RSUExampleScenario.node[37].veinsmobility 	startTime 	79.1
scalar RSUExampleScenario.node[37].veinsmobility 	totalTime 	409.6
scalar RSUExampleScenario.node[37].veinsmobility 	stopTime 	488.8
scalar RSUExampleScenario.node[37].veinsmobility 	minSpeed 	0.25624170033075
scalar RSUExampleScenario.node[37].veinsmobility 	maxSpeed 	9.9999663472688
scalar RSUExampleScenario.node[37].veinsmobility 	totalDistance 	3410.3089492502
scalar RSUExampleScenario.node[37].veinsmobility 	totalCO2Emission 	774.15976899734
scalar RSUExampleScenario.node[38].veinsmobility 	startTime 	81.2
scalar RSUExampleScenario.node[38].veinsmobility 	totalTime 	411.1
scalar RSUExampleScenario.node[38].veinsmobility 	stopTime 	492.4
scalar RSUExampleScenario.node[38].veinsmobility 	minSpeed 	0.25047213315754
scalar RSUExampleScenario.node[38].veinsmobility 	maxSpeed 	9.9999504890852
scalar RSUExampleScenario.node[38].veinsmobility 	totalDistance 	3419.0590847121
scalar RSUExampleScenario.node[38].veinsmobility 	totalCO2Emission 	775.82646303102
scalar RSUExampleScenario.node[39].veinsmobility 	startTime 	83.3
scalar RSUExampleScenario.node[39].veinsmobility 	totalTime 	412.6
scalar RSUExampleScenario.node[39].veinsmobility 	stopTime 	496
scalar RSUExampleScenario.node[39].veinsmobility 	minSpeed 	0.25043849070533
scalar RSUExampleScenario.node[39].veinsmobility 	maxSpeed 	9.9999849741557
scalar RSUExampleScenario.node[39].veinsmobility 	totalDistance 	3409.8839625227
scalar RSUExampleScenario.node[39].veinsmobility 	totalCO2Emission 	775.8999243597
scalar RSUExampleScenario.node[40].veinsmobility 	startTime 	85.4
scalar RSUExampleScenario.node[40].veinsmobility 	totalTime 	414.2
scalar RSUExampleScenario.node[40].veinsmobility 	stopTime 	499.7
scalar RSUExampleScenario.node[40].veinsmobility 	minSpeed 	0.24740905714058
scalar RSUExampleScenario.node[40].veinsmobility 	maxSpeed 	9.9998629636713
scalar RSUExampleScenario.node[40].veinsmobility 	totalDistance 	3419.3383889618
scalar RSUExampleScenario.node[40].veinsmobility 	totalCO2Emission 	777.26609514422
scalar RSUExampleScenario.node[41].veinsmobility 	startTime 	87.5
scalar RSUExampleScenario.node[41].veinsmobility 	totalTime 	415.7
scalar RSUExampleScenario.node[41].veinsmobility 	stopTime 	503.3
scalar RSUExampleScenario.node[41].veinsmobility 	minSpeed 	0.248395943471
scalar RSUExampleScenario.node[41].veinsmobility 	maxSpeed 	9.9999886876135
scalar RSUExampleScenario.node[41].veinsmobility 	totalDistance 	3410.190901361
scalar RSUExampleScenario.node[41].veinsmobility 	totalCO2Emission 	779.88851662055
scalar RSUExampleScenario.node[42].veinsmobility 	startTime 	89.6
scalar RSUExampleScenario.node[42].veinsmobility 	totalTime 	417.3
scalar RSUExampleScenario.node[42].veinsmobility 	stopTime 	507
scalar RSUExampleScenario.node[42].veinsmobility 	minSpeed 	0.25620500880899
scalar RSUExampleScenario.node[42].veinsmobility 	maxSpeed 	9.9999943157332
scalar RSUExampleScenario.node[42].veinsmobility 	totalDistance 	3419.0895038096
scalar RSUExampleScenario.node[42].veinsmobility 	totalCO2Emission 	780.3992715457
scalar RSUExampleScenario.node[43].veinsmobility 	startTime 	91.7
scalar RSUExampleScenario.node[43].veinsmobility 	totalTime 	418.9
scalar RSUExampleScenario.node[43].veinsmobility 	stopTime 	510.7
scalar RSUExampleScenario.node[43].veinsmobility 	minSpeed 	0.25705337335798
scalar RSUExampleScenario.node[43].veinsmobility 	maxSpeed 	9.999968242438
scalar RSUExampleScenario.node[43].veinsmobility 	totalDistance 	3409.893186307
scalar RSUExampleScenario.node[43].veinsmobility 	totalCO2Emission 	779.59762033023
scalar RSUExampleScenario.node[44].veinsmobility 	startTime 	93.8
scalar RSUExampleScenario.node[44].veinsmobility 	totalTime 	420.5
scalar RSUExampleScenario.node[44].veinsmobility 	stopTime 	514.4
scalar RSUExampleScenario.node[44].veinsmobility 	minSpeed 	0.25566244704137
scalar RSUExampleScenario.node[44].veinsmobility 	maxSpeed 	9.9999482894503
scalar RSUExampleScenario.node[44].veinsmobility 	totalDistance 	3418.854728077
scalar RSUExampleScenario.node[44].veinsmobility 	totalCO2Emission 	784.86976608149
scalar RSUExampleScenario.node[45].veinsmobility 	startTime 	95.9
scalar RSUExampleScenario.node[45].veinsmobility 	totalTime 	422.1
scalar RSUExampleScenario.node[45].veinsmobility 	stopTime 	518.1
scalar RSUExampleScenario.node[45].veinsmobility 	minSpeed 	0.2475215000303
scalar RSUExampleScenario.node[45].veinsmobility 	maxSpeed 	9.9999839371443
scalar RSUExampleScenario.node[45].veinsmobility 	totalDistance 	3410.2517307187
scalar RSUExampleScenario.node[45].veinsmobility 	totalCO2Emission 	785.95025482666
scalar RSUExampleScenario.node[46].veinsmobility 	startTime 	98.1
scalar RSUExampleScenario.node[46].veinsmobility 	totalTime 	423.6
scalar RSUExampleScenario.node[46].veinsmobility 	stopTime 	521.8
scalar RSUExampleScenario.node[46].veinsmobility 	minSpeed 	0.25818891308107
scalar RSUExampleScenario.node[46].veinsmobility 	maxSpeed 	9.9999200079241
scalar RSUExampleScenario.node[46].veinsmobility 	totalDistance 	3419.0692334515
scalar RSUExampleScenario.node[46].veinsmobility 	totalCO2Emission 	785.29012966208
scalar RSUExampleScenario.node[47].veinsmobility 	startTime 	100.2
scalar RSUExampleScenario.node[47].veinsmobility 	totalTime 	425.2
scalar RSUExampleScenario.node[47].veinsmobility 	stopTime 	525.5
scalar RSUExampleScenario.node[47].veinsmobility 	minSpeed 	0.24820846734848
scalar RSUExampleScenario.node[47].veinsmobility 	maxSpeed 	9.9999228827469
scalar RSUExampleScenario.node[47].veinsmobility 	totalDistance 	3410.1476413107
scalar RSUExampleScenario.node[47].veinsmobility 	totalCO2Emission 	784.98296216568
scalar RSUExampleScenario.node[48].veinsmobility 	startTime 	102.3
scalar RSUExampleScenario.node[48].veinsmobility 	totalTime 	426.9
scalar RSUExampleScenario.node[48].veinsmobility 	stopTime 	529.3
scalar RSUExampleScenario.node[48].veinsmobility 	minSpeed 	0.24851867184532
scalar RSUExampleScenario.node[48].veinsmobility 	maxSpeed 	9.999993508819
scalar RSUExampleScenario.node[48].veinsmobility 	totalDistance 	3419.6234548759
scalar RSUExampleScenario.node[48].veinsmobility 	totalCO2Emission 	789.73877279076
scalar RSUExampleScenario.node[49].veinsmobility 	startTime 	104.4
scalar RSUExampleScenario.node[49].veinsmobility 	totalTime 	428.5
scalar RSUExampleScenario.node[49].veinsmobility 	stopTime 	533
scalar RSUExampleScenario.node[49].veinsmobility 	minSpeed 	0.2585641250466
scalar RSUExampleScenario.node[49].veinsmobility 	maxSpeed 	9.9999934261269
scalar RSUExampleScenario.node[49].veinsmobility 	totalDistance 	3409.9042813088
scalar RSUExampleScenario.node[49].veinsmobility 	totalCO2Emission 	791.0201060326
scalar RSUExampleScenario.node[50].veinsmobility 	startTime 	106.6
scalar RSUExampleScenario.node[50].veinsmobility 	totalTime 	430
scalar RSUExampleScenario.node[50].veinsmobility 	stopTime 	536.7
scalar RSUExampleScenario.node[50].veinsmobility 	minSpeed 	0.25909678353555
scalar RSUExampleScenario.node[50].veinsmobility 	maxSpeed 	9.9999624569248
scalar RSUExampleScenario.node[50].veinsmobility 	totalDistance 	3419.0708666077
scalar RSUExampleScenario.node[50].veinsmobility 	totalCO2Emission 	794.21823339914
scalar RSUExampleScenario.node[51].veinsmobility 	startTime 	108.8
scalar RSUExampleScenario.node[51].veinsmobility 	totalTime 	431.5
scalar RSUExampleScenario.node[51].veinsmobility 	stopTime 	540.4
scalar RSUExampleScenario.node[51].veinsmobility 	minSpeed 	0.25953727778792
scalar RSUExampleScenario.node[51].veinsmobility 	maxSpeed 	9.9999687395897
scalar RSUExampleScenario.node[51].veinsmobility 	totalDistance 	3410.4541659317
scalar RSUExampleScenario.node[51].veinsmobility 	totalCO2Emission 	791.81929022027
scalar RSUExampleScenario.node[52].veinsmobility 	startTime 	110.9
scalar RSUExampleScenario.node[52].veinsmobility 	totalTime 	433
scalar RSUExampleScenario.node[52].veinsmobility 	stopTime 	544
scalar RSUExampleScenario.node[52].veinsmobility 	minSpeed 	0.25492257128772
scalar RSUExampleScenario.node[52].veinsmobility 	maxSpeed 	9.999991630509
scalar RSUExampleScenario.node[52].veinsmobility 	totalDistance 	3419.0562679296
scalar RSUExampleScenario.node[52].veinsmobility 	totalCO2Emission 	794.18433682313
scalar RSUExampleScenario.node[53].veinsmobility 	startTime 	113
scalar RSUExampleScenario.node[53].veinsmobility 	totalTime 	434.6
scalar RSUExampleScenario.node[53].veinsmobility 	stopTime 	547.7
scalar RSUExampleScenario.node[53].veinsmobility 	minSpeed 	0.2494153707684
scalar RSUExampleScenario.node[53].veinsmobility 	maxSpeed 	9.9999420024874
scalar RSUExampleScenario.node[53].veinsmobility 	totalDistance 	3410.0106587718
scalar RSUExampleScenario.node[53].veinsmobility 	totalCO2Emission 	798.78571886951
scalar RSUExampleScenario.node[54].veinsmobility 	startTime 	115.2
scalar RSUExampleScenario.node[54].veinsmobility 	totalTime 	436.1
scalar RSUExampleScenario.node[54].veinsmobility 	stopTime 	551.4
scalar RSUExampleScenario.node[54].veinsmobility 	minSpeed 	0.25496796663455
scalar RSUExampleScenario.node[54].veinsmobility 	maxSpeed 	9.9999223739724
scalar RSUExampleScenario.node[54].veinsmobility 	totalDistance 	3419.1928652462
scalar RSUExampleScenario.node[54].veinsmobility 	totalCO2Emission 	799.32703145505
scalar RSUExampleScenario.node[55].veinsmobility 	startTime 	117.4
scalar RSUExampleScenario.node[55].veinsmobility 	totalTime 	437.5
scalar RSUExampleScenario.node[55].veinsmobility 	stopTime 	555
scalar RSUExampleScenario.node[55].veinsmobility 	minSpeed 	0.25311466698069
scalar RSUExampleScenario.node[55].veinsmobility 	maxSpeed 	9.9999912924762
scalar RSUExampleScenario.node[55].veinsmobility 	totalDistance 	3410.0986789769
scalar RSUExampleScenario.node[55].veinsmobility 	totalCO2Emission 	802.15672556502
scalar RSUExampleScenario.node[56].veinsmobility 	startTime 	119.5
scalar RSUExampleScenario.node[56].veinsmobility 	totalTime 	439.1
scalar RSUExampleScenario.node[56].veinsmobility 	stopTime 	558.7
scalar RSUExampleScenario.node[56].veinsmobility 	minSpeed 	0.25496360287513
scalar RSUExampleScenario.node[56].veinsmobility 	maxSpeed 	9.9999985080003
scalar RSUExampleScenario.node[56].veinsmobility 	totalDistance 	3419.5226273036
scalar RSUExampleScenario.node[56].veinsmobility 	totalCO2Emission 	801.62776859957
scalar RSUExampleScenario.node[57].veinsmobility 	startTime 	121.6
scalar RSUExampleScenario.node[57].veinsmobility 	totalTime 	440.7
scalar RSUExampleScenario.node[57].veinsmobility 	stopTime 	562.4
scalar RSUExampleScenario.node[57].veinsmobility 	minSpeed 	0.25673304109089
scalar RSUExampleScenario.node[57].veinsmobility 	maxSpeed 	9.9999874488963
scalar RSUExampleScenario.node[57].veinsmobility 	totalDistance 	3410.2917855563
scalar RSUExampleScenario.node[57].veinsmobility 	totalCO2Emission 	804.91473170505
scalar RSUExampleScenario.node[58].veinsmobility 	startTime 	123.7
scalar RSUExampleScenario.node[58].veinsmobility 	totalTime 	442.3
scalar RSUExampleScenario.node[58].veinsmobility 	stopTime 	566.1
scalar RSUExampleScenario.node[58].veinsmobility 	minSpeed 	0.24820890855882
scalar RSUExampleScenario.node[58].veinsmobility 	maxSpeed 	9.9999821528769
scalar RSUExampleScenario.node[58].veinsmobility 	totalDistance 	3419.0743387919
scalar RSUExampleScenario.node[58].veinsmobility 	totalCO2Emission 	805.73054850369
scalar RSUExampleScenario.node[59].veinsmobility 	startTime 	125.8
scalar RSUExampleScenario.node[59].veinsmobility 	totalTime 	443.9
scalar RSUExampleScenario.node[59].veinsmobility 	stopTime 	569.8
scalar RSUExampleScenario.node[59].veinsmobility 	minSpeed 	0.25088113127556
scalar RSUExampleScenario.node[59].veinsmobility 	maxSpeed 	9.9999374990352
scalar RSUExampleScenario.node[59].veinsmobility 	totalDistance 	3410.0035892715
scalar RSUExampleScenario.node[59].veinsmobility 	totalCO2Emission 	806.80495687662
scalar RSUExampleScenario.node[60].veinsmobility 	startTime 	128
scalar RSUExampleScenario.node[60].veinsmobility 	totalTime 	445.4
scalar RSUExampleScenario.node[60].veinsmobility 	stopTime 	573.5
scalar RSUExampleScenario.node[60].veinsmobility 	minSpeed 	0.25448538910947
scalar RSUExampleScenario.node[60].veinsmobility 	maxSpeed 	9.9999953112775
scalar RSUExampleScenario.node[60].veinsmobility 	totalDistance 	3419.5191266616
scalar RSUExampleScenario.node[60].veinsmobility 	totalCO2Emission 	808.99291745362
scalar RSUExampleScenario.node[61].veinsmobility 	startTime 	130.1
scalar RSUExampleScenario.node[61].veinsmobility 	totalTime 	447
scalar RSUExampleScenario.node[61].veinsmobility 	stopTime 	577.2
scalar RSUExampleScenario.node[61].veinsmobility 	minSpeed 	0.25381424422539
scalar RSUExampleScenario.node[61].veinsmobility 	maxSpeed 	9.9999146582093
scalar RSUExampleScenario.node[61].veinsmobility 	totalDistance 	3410.313609395
scalar RSUExampleScenario.node[61].veinsmobility 	totalCO2Emission 	808.68812486073
scalar RSUExampleScenario.node[62].veinsmobility 	startTime 	132.3
scalar RSUExampleScenario.node[62].veinsmobility 	totalTime 	448.5
scalar RSUExampleScenario.node[62].veinsmobility 	stopTime 	580.9
scalar RSUExampleScenario.node[62].veinsmobility 	minSpeed 	0.24837938136002
scalar RSUExampleScenario.node[62].veinsmobility 	maxSpeed 	9.999949634166
scalar RSUExampleScenario.node[62].veinsmobility 	totalDistance 	3419.2214016957
scalar RSUExampleScenario.node[62].veinsmobility 	totalCO2Emission 	811.34596212301
scalar RSUExampleScenario.node[63].veinsmobility 	startTime 	134.4
scalar RSUExampleScenario.node[63].veinsmobility 	totalTime 	450.1
scalar RSUExampleScenario.node[63].veinsmobility 	stopTime 	584.6
scalar RSUExampleScenario.node[63].veinsmobility 	minSpeed 	0.25166562592657
scalar RSUExampleScenario.node[63].veinsmobility 	maxSpeed 	9.9999632818787
scalar RSUExampleScenario.node[63].veinsmobility 	totalDistance 	3410.1962885226
scalar RSUExampleScenario.node[63].veinsmobility 	totalCO2Emission 	810.6639205395
scalar RSUExampleScenario.node[64].veinsmobility 	startTime 	136.5
scalar RSUExampleScenario.node[64].veinsmobility 	totalTime 	451.7
scalar RSUExampleScenario.node[64].veinsmobility 	stopTime 	588.3
scalar RSUExampleScenario.node[64].veinsmobility 	minSpeed 	0.25640789415315
scalar RSUExampleScenario.node[64].veinsmobility 	maxSpeed 	9.9999638448935
scalar RSUExampleScenario.node[64].veinsmobility 	totalDistance 	3419.562439789
scalar RSUExampleScenario.node[64].veinsmobility 	totalCO2Emission 	818.62843463173
scalar RSUExampleScenario.node[65].veinsmobility 	startTime 	138.7
scalar RSUExampleScenario.node[65].veinsmobility 	totalTime 	453.2
scalar RSUExampleScenario.node[65].veinsmobility 	stopTime 	592
scalar RSUExampleScenario.node[65].veinsmobility 	minSpeed 	0.25721925380384
scalar RSUExampleScenario.node[65].veinsmobility 	maxSpeed 	9.9999654159835
scalar RSUExampleScenario.node[65].veinsmobility 	totalDistance 	3410.2411920942
scalar RSUExampleScenario.node[65].veinsmobility 	totalCO2Emission 	819.78496778088
scalar RSUExampleScenario.node[66].veinsmobility 	startTime 	140.9
scalar RSUExampleScenario.node[66].veinsmobility 	totalTime 	454.7
scalar RSUExampleScenario.node[66].veinsmobility 	stopTime 	595.7
scalar RSUExampleScenario.node[66].veinsmobility 	minSpeed 	0.25853797043348
scalar RSUExampleScenario.node[66].veinsmobility 	maxSpeed 	9.9999595803465
scalar RSUExampleScenario.node[66].veinsmobility 	totalDistance 	3419.1540859805
scalar RSUExampleScenario.node[66].veinsmobility 	totalCO2Emission 	817.71813351997
scalar RSUExampleScenario.node[67].veinsmobility 	startTime 	143
scalar RSUExampleScenario.node[67].veinsmobility 	totalTime 	456.2
scalar RSUExampleScenario.node[67].veinsmobility 	stopTime 	599.3
scalar RSUExampleScenario.node[67].veinsmobility 	minSpeed 	0.25748997180909
scalar RSUExampleScenario.node[67].veinsmobility 	maxSpeed 	9.9997261548974
scalar RSUExampleScenario.node[67].veinsmobility 	totalDistance 	3410.1963387739
scalar RSUExampleScenario.node[67].veinsmobility 	totalCO2Emission 	819.48282486798
scalar RSUExampleScenario.node[68].veinsmobility 	startTime 	145.1
scalar RSUExampleScenario.node[68].veinsmobility 	totalTime 	457.8
scalar RSUExampleScenario.node[68].veinsmobility 	stopTime 	603
scalar RSUExampleScenario.node[68].veinsmobility 	minSpeed 	0.24862360536028
scalar RSUExampleScenario.node[68].veinsmobility 	maxSpeed 	9.9999893665547
scalar RSUExampleScenario.node[68].veinsmobility 	totalDistance 	3419.5511934719
scalar RSUExampleScenario.node[68].veinsmobility 	totalCO2Emission 	819.94994877842
scalar RSUExampleScenario.node[69].veinsmobility 	startTime 	147.2
scalar RSUExampleScenario.node[69].veinsmobility 	totalTime 	459.4
scalar RSUExampleScenario.node[69].veinsmobility 	stopTime 	606.7
scalar RSUExampleScenario.node[69].veinsmobility 	minSpeed 	0.25817003352614
scalar RSUExampleScenario.node[69].veinsmobility 	maxSpeed 	9.9999098953302
scalar RSUExampleScenario.node[69].veinsmobility 	totalDistance 	3410.1432760339
scalar RSUExampleScenario.node[69].veinsmobility 	totalCO2Emission 	823.39730554615
scalar RSUExampleScenario.node[70].veinsmobility 	startTime 	149.4
scalar RSUExampleScenario.node[70].veinsmobility 	totalTime 	460.8
scalar RSUExampleScenario.node[70].veinsmobility 	stopTime 	610.3
scalar RSUExampleScenario.node[70].veinsmobility 	minSpeed 	0.25694293306163
scalar RSUExampleScenario.node[70].veinsmobility 	maxSpeed 	9.9999938977323
scalar RSUExampleScenario.node[70].veinsmobility 	totalDistance 	3419.1497540817
scalar RSUExampleScenario.node[70].veinsmobility 	totalCO2Emission 	827.39162474011
scalar RSUExampleScenario.node[71].veinsmobility 	startTime 	151.5
scalar RSUExampleScenario.node[71].veinsmobility 	totalTime 	462.3
scalar RSUExampleScenario.node[71].veinsmobility 	stopTime 	613.9
scalar RSUExampleScenario.node[71].veinsmobility 	minSpeed 	0.25641699242452
scalar RSUExampleScenario.node[71].veinsmobility 	maxSpeed 	9.9999995312397
scalar RSUExampleScenario.node[71].veinsmobility 	totalDistance 	3410.1479051937
scalar RSUExampleScenario.node[71].veinsmobility 	totalCO2Emission 	829.72774278922
scalar RSUExampleScenario.node[72].veinsmobility 	startTime 	153.7
scalar RSUExampleScenario.node[72].veinsmobility 	totalTime 	463.8
scalar RSUExampleScenario.node[72].veinsmobility 	stopTime 	617.6
scalar RSUExampleScenario.node[72].veinsmobility 	minSpeed 	0.25370861876011
scalar RSUExampleScenario.node[72].veinsmobility 	maxSpeed 	9.9999957306101
scalar RSUExampleScenario.node[72].veinsmobility 	totalDistance 	3419.5659137353
scalar RSUExampleScenario.node[72].veinsmobility 	totalCO2Emission 	829.97966652387
scalar RSUExampleScenario.node[73].veinsmobility 	startTime 	155.8
scalar RSUExampleScenario.node[73].veinsmobility 	totalTime 	465.4
scalar RSUExampleScenario.node[73].veinsmobility 	stopTime 	621.3
scalar RSUExampleScenario.node[73].veinsmobility 	minSpeed 	0.25554224039568
scalar RSUExampleScenario.node[73].veinsmobility 	maxSpeed 	9.9999818757735
scalar RSUExampleScenario.node[73].veinsmobility 	totalDistance 	3410.2840916484
scalar RSUExampleScenario.node[73].veinsmobility 	totalCO2Emission 	829.07922273793
scalar RSUExampleScenario.node[74].veinsmobility 	startTime 	158
scalar RSUExampleScenario.node[74].veinsmobility 	totalTime 	466.9
scalar RSUExampleScenario.node[74].veinsmobility 	stopTime 	625
scalar RSUExampleScenario.node[74].veinsmobility 	minSpeed 	0.25199088663259
scalar RSUExampleScenario.node[74].veinsmobility 	maxSpeed 	9.9997972095944
scalar RSUExampleScenario.node[74].veinsmobility 	totalDistance 	3419.4420827823
scalar RSUExampleScenario.node[74].veinsmobility 	totalCO2Emission 	828.74428035538
scalar RSUExampleScenario.node[75].veinsmobility 	startTime 	160.1
scalar RSUExampleScenario.node[75].veinsmobility 	totalTime 	468.5
scalar RSUExampleScenario.node[75].veinsmobility 	stopTime 	628.7
scalar RSUExampleScenario.node[75].veinsmobility 	minSpeed 	0.24723607188789
scalar RSUExampleScenario.node[75].veinsmobility 	maxSpeed 	9.9999855413474
scalar RSUExampleScenario.node[75].veinsmobility 	totalDistance 	3410.2506454833
scalar RSUExampleScenario.node[75].veinsmobility 	totalCO2Emission 	836.61230092466
scalar RSUExampleScenario.node[76].veinsmobility 	startTime 	162.3
scalar RSUExampleScenario.node[76].veinsmobility 	totalTime 	470
scalar RSUExampleScenario.node[76].veinsmobility 	stopTime 	632.4
scalar RSUExampleScenario.node[76].veinsmobility 	minSpeed 	0.25725260565616
scalar RSUExampleScenario.node[76].veinsmobility 	maxSpeed 	9.9999251540261
scalar RSUExampleScenario.node[76].veinsmobility 	totalDistance 	3419.3457705027
scalar RSUExampleScenario.node[76].veinsmobility 	totalCO2Emission 	831.72415649778
scalar RSUExampleScenario.node[77].veinsmobility 	startTime 	164.5
scalar RSUExampleScenario.node[77].veinsmobility 	totalTime 	471.5
scalar RSUExampleScenario.node[77].veinsmobility 	stopTime 	636.1
scalar RSUExampleScenario.node[77].veinsmobility 	minSpeed 	0.25064640584379
scalar RSUExampleScenario.node[77].veinsmobility 	maxSpeed 	9.999920477441
scalar RSUExampleScenario.node[77].veinsmobility 	totalDistance 	3410.3994863685
scalar RSUExampleScenario.node[77].veinsmobility 	totalCO2Emission 	835.6699574689
scalar RSUExampleScenario.node[78].veinsmobility 	startTime 	166.6
scalar RSUExampleScenario.node[78].veinsmobility 	totalTime 	473.1
scalar RSUExampleScenario.node[78].veinsmobility 	stopTime 	639.8
scalar RSUExampleScenario.node[78].veinsmobility 	minSpeed 	0.25554507296742
scalar RSUExampleScenario.node[78].veinsmobility 	maxSpeed 	9.9999835569179
scalar RSUExampleScenario.node[78].veinsmobility 	totalDistance 	3419.726698132
scalar RSUExampleScenario.node[78].veinsmobility 	totalCO2Emission 	836.2700981475
scalar RSUExampleScenario.node[79].veinsmobility 	startTime 	168.8
scalar RSUExampleScenario.node[79].veinsmobility 	totalTime 	474.6
scalar RSUExampleScenario.node[79].veinsmobility 	stopTime 	643.5
scalar RSUExampleScenario.node[79].veinsmobility 	minSpeed 	0.25881504490296
scalar RSUExampleScenario.node[79].veinsmobility 	maxSpeed 	9.9999822681979
scalar RSUExampleScenario.node[79].veinsmobility 	totalDistance 	3410.0759033209
scalar RSUExampleScenario.node[79].veinsmobility 	totalCO2Emission 	839.02002111058
scalar RSUExampleScenario.node[80].veinsmobility 	startTime 	171
scalar RSUExampleScenario.node[80].veinsmobility 	totalTime 	476.1
scalar RSUExampleScenario.node[80].veinsmobility 	stopTime 	647.2
scalar RSUExampleScenario.node[80].veinsmobility 	minSpeed 	0.24794395736419
scalar RSUExampleScenario.node[80].veinsmobility 	maxSpeed 	9.9999080321239
scalar RSUExampleScenario.node[80].veinsmobility 	totalDistance 	3419.5443947268
scalar RSUExampleScenario.node[80].veinsmobility 	totalCO2Emission 	839.86268177674
scalar RSUExampleScenario.node[81].veinsmobility 	startTime 	173.2
scalar RSUExampleScenario.node[81].veinsmobility 	totalTime 	477.5
scalar RSUExampleScenario.node[81].veinsmobility 	stopTime 	650.8
scalar RSUExampleScenario.node[81].veinsmobility 	minSpeed 	0.24718206582032
scalar RSUExampleScenario.node[81].veinsmobility 	maxSpeed 	9.9999492455251
scalar RSUExampleScenario.node[81].veinsmobility 	totalDistance 	3410.0537556851
scalar RSUExampleScenario.node[81].veinsmobility 	totalCO2Emission 	844.86376534166
scalar RSUExampleScenario.node[82].veinsmobility 	startTime 	175.3
scalar RSUExampleScenario.node[82].veinsmobility 	totalTime 	479
scalar RSUExampleScenario.node[82].veinsmobility 	stopTime 	654.4
scalar RSUExampleScenario.node[82].veinsmobility 	minSpeed 	0.24746331920568
scalar RSUExampleScenario.node[82].veinsmobility 	maxSpeed 	9.999965989138
scalar RSUExampleScenario.node[82].veinsmobility 	totalDistance 	3419.3165313915
scalar RSUExampleScenario.node[82].veinsmobility 	totalCO2Emission 	843.55979810636
scalar RSUExampleScenario.node[83].veinsmobility 	startTime 	177.4
scalar RSUExampleScenario.node[83].veinsmobility 	totalTime 	480.6
scalar RSUExampleScenario.node[83].veinsmobility 	stopTime 	658.1
scalar RSUExampleScenario.node[83].veinsmobility 	minSpeed 	0.24922592018056
scalar RSUExampleScenario.node[83].veinsmobility 	maxSpeed 	9.9999810493062
scalar RSUExampleScenario.node[83].veinsmobility 	totalDistance 	3410.0954213723
scalar RSUExampleScenario.node[83].veinsmobility 	totalCO2Emission 	845.80919972493
scalar RSUExampleScenario.node[84].veinsmobility 	startTime 	179.5
scalar RSUExampleScenario.node[84].veinsmobility 	totalTime 	482.1
scalar RSUExampleScenario.node[84].veinsmobility 	stopTime 	661.7
scalar RSUExampleScenario.node[84].veinsmobility 	minSpeed 	0.251360673727
scalar RSUExampleScenario.node[84].veinsmobility 	maxSpeed 	9.9998554783082
scalar RSUExampleScenario.node[84].veinsmobility 	totalDistance 	3419.1995294013
scalar RSUExampleScenario.node[84].veinsmobility 	totalCO2Emission 	846.0731863522
scalar RSUExampleScenario.node[85].veinsmobility 	startTime 	181.6
scalar RSUExampleScenario.node[85].veinsmobility 	totalTime 	483.7
scalar RSUExampleScenario.node[85].veinsmobility 	stopTime 	665.4
scalar RSUExampleScenario.node[85].veinsmobility 	minSpeed 	0.2480066189249
scalar RSUExampleScenario.node[85].veinsmobility 	maxSpeed 	9.9998438808275
scalar RSUExampleScenario.node[85].veinsmobility 	totalDistance 	3410.0634182784
scalar RSUExampleScenario.node[85].veinsmobility 	totalCO2Emission 	847.64405121902
scalar RSUExampleScenario.node[86].veinsmobility 	startTime 	183.7
scalar RSUExampleScenario.node[86].veinsmobility 	totalTime 	485.3
scalar RSUExampleScenario.node[86].veinsmobility 	stopTime 	669.1
scalar RSUExampleScenario.node[86].veinsmobility 	minSpeed 	0.25364854276623
scalar RSUExampleScenario.node[86].veinsmobility 	maxSpeed 	9.9999702078593
scalar RSUExampleScenario.node[86].veinsmobility 	totalDistance 	3419.4315788234
scalar RSUExampleScenario.node[86].veinsmobility 	totalCO2Emission 	847.35003125682
scalar RSUExampleScenario.node[87].veinsmobility 	startTime 	185.8
scalar RSUExampleScenario.node[87].veinsmobility 	totalTime 	486.9
scalar RSUExampleScenario.node[87].veinsmobility 	stopTime 	672.8
scalar RSUExampleScenario.node[87].veinsmobility 	minSpeed 	0.24859910758934
scalar RSUExampleScenario.node[87].veinsmobility 	maxSpeed 	9.9999907982
scalar RSUExampleScenario.node[87].veinsmobility 	totalDistance 	3410.0745172786
scalar RSUExampleScenario.node[87].veinsmobility 	totalCO2Emission 	854.11361008787
scalar RSUExampleScenario.node[88].veinsmobility 	startTime 	188
scalar RSUExampleScenario.node[88].veinsmobility 	totalTime 	488.3
scalar RSUExampleScenario.node[88].veinsmobility 	stopTime 	676.4
scalar RSUExampleScenario.node[88].veinsmobility 	minSpeed 	0.25625961951283
scalar RSUExampleScenario.node[88].veinsmobility 	maxSpeed 	9.999936152685
scalar RSUExampleScenario.node[88].veinsmobility 	totalDistance 	3419.2257420321
scalar RSUExampleScenario.node[88].veinsmobility 	totalCO2Emission 	851.71996529846
scalar RSUExampleScenario.node[89].veinsmobility 	startTime 	190.1
scalar RSUExampleScenario.node[89].veinsmobility 	totalTime 	489.9
scalar RSUExampleScenario.node[89].veinsmobility 	stopTime 	680.1
scalar RSUExampleScenario.node[89].veinsmobility 	minSpeed 	0.24774708237289
scalar RSUExampleScenario.node[89].veinsmobility 	maxSpeed 	9.9998296276946
scalar RSUExampleScenario.node[89].veinsmobility 	totalDistance 	3410.5719871743
scalar RSUExampleScenario.node[89].veinsmobility 	totalCO2Emission 	853.4044005958
scalar RSUExampleScenario.node[90].veinsmobility 	startTime 	192.2
scalar RSUExampleScenario.node[90].veinsmobility 	totalTime 	491.5
scalar RSUExampleScenario.node[90].veinsmobility 	stopTime 	683.8
scalar RSUExampleScenario.node[90].veinsmobility 	minSpeed 	0.25477218128159
scalar RSUExampleScenario.node[90].veinsmobility 	maxSpeed 	9.999950411024
scalar RSUExampleScenario.node[90].veinsmobility 	totalDistance 	3419.475162073
scalar RSUExampleScenario.node[90].veinsmobility 	totalCO2Emission 	859.73324152743
scalar RSUExampleScenario.node[91].veinsmobility 	startTime 	194.3
scalar RSUExampleScenario.node[91].veinsmobility 	totalTime 	493
scalar RSUExampleScenario.node[91].veinsmobility 	stopTime 	687.4
scalar RSUExampleScenario.node[91].veinsmobility 	minSpeed 	0.25626991690788
scalar RSUExampleScenario.node[91].veinsmobility 	maxSpeed 	9.9999848068645
scalar RSUExampleScenario.node[91].veinsmobility 	totalDistance 	3409.8212426208
scalar RSUExampleScenario.node[91].veinsmobility 	totalCO2Emission 	857.72889894899
scalar RSUExampleScenario.node[92].veinsmobility 	startTime 	196.4
scalar RSUExampleScenario.node[92].veinsmobility 	totalTime 	494.5
scalar RSUExampleScenario.node[92].veinsmobility 	stopTime 	691
scalar RSUExampleScenario.node[92].veinsmobility 	minSpeed 	0.25651156267221
scalar RSUExampleScenario.node[92].veinsmobility 	maxSpeed 	9.999937214274
scalar RSUExampleScenario.node[92].veinsmobility 	totalDistance 	3419.2579862979
scalar RSUExampleScenario.node[92].veinsmobility 	totalCO2Emission 	860.10032931172
scalar RSUExampleScenario.node[93].veinsmobility 	startTime 	198.5
scalar RSUExampleScenario.node[93].veinsmobility 	totalTime 	496
scalar RSUExampleScenario.node[93].veinsmobility 	stopTime 	694.6
scalar RSUExampleScenario.node[93].veinsmobility 	minSpeed 	0.25134331752337
scalar RSUExampleScenario.node[93].veinsmobility 	maxSpeed 	9.9999963937211
scalar RSUExampleScenario.node[93].veinsmobility 	totalDistance 	3409.8445650622
scalar RSUExampleScenario.node[93].veinsmobility 	totalCO2Emission 	863.32574169225
scalar RSUExampleScenario.node[94].veinsmobility 	startTime 	200.7
scalar RSUExampleScenario.node[94].veinsmobility 	totalTime 	497.5
scalar RSUExampleScenario.node[94].veinsmobility 	stopTime 	698.3
scalar RSUExampleScenario.node[94].veinsmobility 	minSpeed 	0.25503863745788
scalar RSUExampleScenario.node[94].veinsmobility 	maxSpeed 	9.9999474578374
scalar RSUExampleScenario.node[94].veinsmobility 	totalDistance 	3419.1224529037
scalar RSUExampleScenario.node[94].veinsmobility 	totalCO2Emission 	866.90283578286
scalar RSUExampleScenario.node[95].veinsmobility 	startTime 	202.8
scalar RSUExampleScenario.node[95].veinsmobility 	totalTime 	499
scalar RSUExampleScenario.node[95].veinsmobility 	stopTime 	701.9
scalar RSUExampleScenario.node[95].veinsmobility 	minSpeed 	0.24776588234119
scalar RSUExampleScenario.node[95].veinsmobility 	maxSpeed 	9.999947392398
scalar RSUExampleScenario.node[95].veinsmobility 	totalDistance 	3410.1620068185
scalar RSUExampleScenario.node[95].veinsmobility 	totalCO2Emission 	866.89601268494
scalar RSUExampleScenario.node[96].veinsmobility 	startTime 	204.9
scalar RSUExampleScenario.node[96].veinsmobility 	totalTime 	500.6
scalar RSUExampleScenario.node[96].veinsmobility 	stopTime 	705.6
scalar RSUExampleScenario.node[96].veinsmobility 	minSpeed 	0.25441743748309
scalar RSUExampleScenario.node[96].veinsmobility 	maxSpeed 	9.9999749858421
scalar RSUExampleScenario.node[96].veinsmobility 	totalDistance 	3419.1226448874
scalar RSUExampleScenario.node[96].veinsmobility 	totalCO2Emission 	864.4253382048
scalar RSUExampleScenario.node[97].veinsmobility 	startTime 	207
scalar RSUExampleScenario.node[97].veinsmobility 	totalTime 	502.1
scalar RSUExampleScenario.node[97].veinsmobility 	stopTime 	709.2
scalar RSUExampleScenario.node[97].veinsmobility 	minSpeed 	0.24820710403007
scalar RSUExampleScenario.node[97].veinsmobility 	maxSpeed 	9.9998729402409
scalar RSUExampleScenario.node[97].veinsmobility 	totalDistance 	3410.0677477381
scalar RSUExampleScenario.node[97].veinsmobility 	totalCO2Emission 	865.81201461697
scalar RSUExampleScenario.node[98].veinsmobility 	startTime 	209.2
scalar RSUExampleScenario.node[98].veinsmobility 	totalTime 	503.5
scalar RSUExampleScenario.node[98].veinsmobility 	stopTime 	712.8
scalar RSUExampleScenario.node[98].veinsmobility 	minSpeed 	0.2569304385318
scalar RSUExampleScenario.node[98].veinsmobility 	maxSpeed 	9.9999433819205
scalar RSUExampleScenario.node[98].veinsmobility 	totalDistance 	3419.032649
scalar RSUExampleScenario.node[98].veinsmobility 	totalCO2Emission 	870.2364146517
scalar RSUExampleScenario.node[99].veinsmobility 	startTime 	211.3
scalar RSUExampleScenario.node[99].veinsmobility 	totalTime 	505.1
scalar RSUExampleScenario.node[99].veinsmobility 	stopTime 	716.5
scalar RSUExampleScenario.node[99].veinsmobility 	minSpeed 	0.25103290820005
scalar RSUExampleScenario.node[99].veinsmobility 	maxSpeed 	9.9999795347266
scalar RSUExampleScenario.node[99].veinsmobility 	totalDistance 	3409.9229990492
scalar RSUExampleScenario.node[99].veinsmobility 	totalCO2Emission 	867.43752378153
scalar RSUExampleScenario.node[100].veinsmobility 	startTime 	213.5
scalar RSUExampleScenario.node[100].veinsmobility 	totalTime 	506.7
scalar RSUExampleScenario.node[100].veinsmobility 	stopTime 	720.3
scalar RSUExampleScenario.node[100].veinsmobility 	minSpeed 	0.25780116101122
scalar RSUExampleScenario.node[100].veinsmobility 	maxSpeed 	9.9999782543001
scalar RSUExampleScenario.node[100].veinsmobility 	totalDistance 	3419.5650567893
scalar RSUExampleScenario.node[100].veinsmobility 	totalCO2Emission 	871.79688226698
scalar RSUExampleScenario.node[101].veinsmobility 	startTime 	215.6
scalar RSUExampleScenario.node[101].veinsmobility 	totalTime 	508.2
scalar RSUExampleScenario.node[101].veinsmobility 	stopTime 	723.9
scalar RSUExampleScenario.node[101].veinsmobility 	minSpeed 	0.25863999508624
scalar RSUExampleScenario.node[101].veinsmobility 	maxSpeed 	9.9999873670214
scalar RSUExampleScenario.node[101].veinsmobility 	totalDistance 	3410.425912325
scalar RSUExampleScenario.node[101].veinsmobility 	totalCO2Emission 	868.1663300222
scalar RSUExampleScenario.node[102].veinsmobility 	startTime 	217.7
scalar RSUExampleScenario.node[102].veinsmobility 	totalTime 	509.7
scalar RSUExampleScenario.node[102].veinsmobility 	stopTime 	727.5
scalar RSUExampleScenario.node[102].veinsmobility 	minSpeed 	0.25346182585857
scalar RSUExampleScenario.node[102].veinsmobility 	maxSpeed 	9.9999644063041
scalar RSUExampleScenario.node[102].veinsmobility 	totalDistance 	3419.3256440806
scalar RSUExampleScenario.node[102].veinsmobility 	totalCO2Emission 	875.38272997701
scalar RSUExampleScenario.node[103].veinsmobility 	startTime 	219.8
scalar RSUExampleScenario.node[103].veinsmobility 	totalTime 	511.3
scalar RSUExampleScenario.node[103].veinsmobility 	stopTime 	731.2
scalar RSUExampleScenario.node[103].veinsmobility 	minSpeed 	0.2478068995513
scalar RSUExampleScenario.node[103].veinsmobility 	maxSpeed 	9.9999532324239
scalar RSUExampleScenario.node[103].veinsmobility 	totalDistance 	3409.894182664
scalar RSUExampleScenario.node[103].veinsmobility 	totalCO2Emission 	876.01335027235
scalar RSUExampleScenario.node[104].veinsmobility 	startTime 	221.9
scalar RSUExampleScenario.node[104].veinsmobility 	totalTime 	512.9
scalar RSUExampleScenario.node[104].veinsmobility 	stopTime 	734.9
scalar RSUExampleScenario.node[104].veinsmobility 	minSpeed 	0.25154363824613
scalar RSUExampleScenario.node[104].veinsmobility 	maxSpeed 	9.9999468558072
scalar RSUExampleScenario.node[104].veinsmobility 	totalDistance 	3419.2859998167
scalar RSUExampleScenario.node[104].veinsmobility 	totalCO2Emission 	879.77389579347
scalar RSUExampleScenario.node[105].veinsmobility 	startTime 	224
scalar RSUExampleScenario.node[105].veinsmobility 	totalTime 	514.5
scalar RSUExampleScenario.node[105].veinsmobility 	stopTime 	738.6
scalar RSUExampleScenario.node[105].veinsmobility 	minSpeed 	0.25717007715651
scalar RSUExampleScenario.node[105].veinsmobility 	maxSpeed 	9.9999560274603
scalar RSUExampleScenario.node[105].veinsmobility 	totalDistance 	3410.2929339294
scalar RSUExampleScenario.node[105].veinsmobility 	totalCO2Emission 	878.8292936153
scalar RSUExampleScenario.node[106].veinsmobility 	startTime 	226.1
scalar RSUExampleScenario.node[106].veinsmobility 	totalTime 	516.1
scalar RSUExampleScenario.node[106].veinsmobility 	stopTime 	742.3
scalar RSUExampleScenario.node[106].veinsmobility 	minSpeed 	0.24737667501695
scalar RSUExampleScenario.node[106].veinsmobility 	maxSpeed 	9.9999159792252
scalar RSUExampleScenario.node[106].veinsmobility 	totalDistance 	3414.1760210189
scalar RSUExampleScenario.node[106].veinsmobility 	totalCO2Emission 	878.93442194604
scalar RSUExampleScenario.node[107].veinsmobility 	startTime 	228.3
scalar RSUExampleScenario.node[107].veinsmobility 	totalTime 	517.7
scalar RSUExampleScenario.node[107].veinsmobility 	stopTime 	746.1
scalar RSUExampleScenario.node[107].veinsmobility 	minSpeed 	0.25211328810663
scalar RSUExampleScenario.node[107].veinsmobility 	maxSpeed 	9.9999063853035
scalar RSUExampleScenario.node[107].veinsmobility 	totalDistance 	3410.4618157074
scalar RSUExampleScenario.node[107].veinsmobility 	totalCO2Emission 	883.1482204203
scalar RSUExampleScenario.node[108].veinsmobility 	startTime 	230.4
scalar RSUExampleScenario.node[108].veinsmobility 	totalTime 	519.3
scalar RSUExampleScenario.node[108].veinsmobility 	stopTime 	749.8
scalar RSUExampleScenario.node[108].veinsmobility 	minSpeed 	0.25317755870824
scalar RSUExampleScenario.node[108].veinsmobility 	maxSpeed 	9.9999679264706
scalar RSUExampleScenario.node[108].veinsmobility 	totalDistance 	3419.1813013563
scalar RSUExampleScenario.node[108].veinsmobility 	totalCO2Emission 	885.99287469946
scalar RSUExampleScenario.node[109].veinsmobility 	startTime 	232.5
scalar RSUExampleScenario.node[109].veinsmobility 	totalTime 	520.9
scalar RSUExampleScenario.node[109].veinsmobility 	stopTime 	753.5
scalar RSUExampleScenario.node[109].veinsmobility 	minSpeed 	0.25403483857377
scalar RSUExampleScenario.node[109].veinsmobility 	maxSpeed 	9.999951967767
scalar RSUExampleScenario.node[109].veinsmobility 	totalDistance 	3410.0487859484
scalar RSUExampleScenario.node[109].veinsmobility 	totalCO2Emission 	885.61303935093
scalar RSUExampleScenario.node[110].veinsmobility 	startTime 	234.6
scalar RSUExampleScenario.node[110].veinsmobility 	totalTime 	522.4
scalar RSUExampleScenario.node[110].veinsmobility 	stopTime 	757.1
scalar RSUExampleScenario.node[110].veinsmobility 	minSpeed 	0.25023811582103
scalar RSUExampleScenario.node[110].veinsmobility 	maxSpeed 	9.9999708251143
scalar RSUExampleScenario.node[110].veinsmobility 	totalDistance 	3414.2549322456
scalar RSUExampleScenario.node[110].veinsmobility 	totalCO2Emission 	884.36463011207
scalar RSUExampleScenario.node[111].veinsmobility 	startTime 	236.8
scalar RSUExampleScenario.node[111].veinsmobility 	totalTime 	523.9
scalar RSUExampleScenario.node[111].veinsmobility 	stopTime 	760.8
scalar RSUExampleScenario.node[111].veinsmobility 	minSpeed 	0.25483239067858
scalar RSUExampleScenario.node[111].veinsmobility 	maxSpeed 	9.9998239822313
scalar RSUExampleScenario.node[111].veinsmobility 	totalDistance 	3410.1528001822
scalar RSUExampleScenario.node[111].veinsmobility 	totalCO2Emission 	889.03439932291
scalar RSUExampleScenario.node[112].veinsmobility 	startTime 	238.9
scalar RSUExampleScenario.node[112].veinsmobility 	totalTime 	525.5
scalar RSUExampleScenario.node[112].veinsmobility 	stopTime 	764.5
scalar RSUExampleScenario.node[112].veinsmobility 	minSpeed 	0.25722497181338
scalar RSUExampleScenario.node[112].veinsmobility 	maxSpeed 	9.9999640488694
scalar RSUExampleScenario.node[112].veinsmobility 	totalDistance 	3414.8834410103
scalar RSUExampleScenario.node[112].veinsmobility 	totalCO2Emission 	893.00816746642
scalar RSUExampleScenario.node[113].veinsmobility 	startTime 	241
scalar RSUExampleScenario.node[113].veinsmobility 	totalTime 	527.1
scalar RSUExampleScenario.node[113].veinsmobility 	stopTime 	768.2
scalar RSUExampleScenario.node[113].veinsmobility 	minSpeed 	0.24843218493508
scalar RSUExampleScenario.node[113].veinsmobility 	maxSpeed 	9.9998831691244
scalar RSUExampleScenario.node[113].veinsmobility 	totalDistance 	3409.9622099474
scalar RSUExampleScenario.node[113].veinsmobility 	totalCO2Emission 	890.826382247
scalar RSUExampleScenario.node[114].veinsmobility 	startTime 	243.1
scalar RSUExampleScenario.node[114].veinsmobility 	totalTime 	528.7
scalar RSUExampleScenario.node[114].veinsmobility 	stopTime 	771.9
scalar RSUExampleScenario.node[114].veinsmobility 	minSpeed 	0.25360495940619
scalar RSUExampleScenario.node[114].veinsmobility 	maxSpeed 	9.9998996644793
scalar RSUExampleScenario.node[114].veinsmobility 	totalDistance 	3414.2299175898
scalar RSUExampleScenario.node[114].veinsmobility 	totalCO2Emission 	893.75892356989
scalar RSUExampleScenario.node[115].veinsmobility 	startTime 	245.2
scalar RSUExampleScenario.node[115].veinsmobility 	totalTime 	530.3
scalar RSUExampleScenario.node[115].veinsmobility 	stopTime 	775.6
scalar RSUExampleScenario.node[115].veinsmobility 	minSpeed 	0.25641622151714
scalar RSUExampleScenario.node[115].veinsmobility 	maxSpeed 	9.9998834757088
scalar RSUExampleScenario.node[115].veinsmobility 	totalDistance 	3410.3102375852
scalar RSUExampleScenario.node[115].veinsmobility 	totalCO2Emission 	893.89730754805
scalar RSUExampleScenario.node[116].veinsmobility 	startTime 	247.3
scalar RSUExampleScenario.node[116].veinsmobility 	totalTime 	531.9
scalar RSUExampleScenario.node[116].veinsmobility 	stopTime 	779.3
scalar RSUExampleScenario.node[116].veinsmobility 	minSpeed 	0.24753699659021
scalar RSUExampleScenario.node[116].veinsmobility 	maxSpeed 	9.9999662079755
scalar RSUExampleScenario.node[116].veinsmobility 	totalDistance 	3414.6252332579
scalar RSUExampleScenario.node[116].veinsmobility 	totalCO2Emission 	901.2857118195
scalar RSUExampleScenario.node[117].veinsmobility 	startTime 	249.4
scalar RSUExampleScenario.node[117].veinsmobility 	totalTime 	533.4
scalar RSUExampleScenario.node[117].veinsmobility 	stopTime 	782.9
scalar RSUExampleScenario.node[117].veinsmobility 	minSpeed 	0.2593702815976
scalar RSUExampleScenario.node[117].veinsmobility 	maxSpeed 	9.999958560497
scalar RSUExampleScenario.node[117].veinsmobility 	totalDistance 	3410.1462031817
scalar RSUExampleScenario.node[117].veinsmobility 	totalCO2Emission 	898.41527001013
scalar RSUExampleScenario.node[118].veinsmobility 	startTime 	251.6
scalar RSUExampleScenario.node[118].veinsmobility 	totalTime 	534.9
scalar RSUExampleScenario.node[118].veinsmobility 	stopTime 	786.6
scalar RSUExampleScenario.node[118].veinsmobility 	minSpeed 	0.25823492277414
scalar RSUExampleScenario.node[118].veinsmobility 	maxSpeed 	9.9999486586894
scalar RSUExampleScenario.node[118].veinsmobility 	totalDistance 	3414.2607584728
scalar RSUExampleScenario.node[118].veinsmobility 	totalCO2Emission 	900.47327129646
scalar RSUExampleScenario.node[119].veinsmobility 	startTime 	253.7
scalar RSUExampleScenario.node[119].veinsmobility 	totalTime 	536.5
scalar RSUExampleScenario.node[119].veinsmobility 	stopTime 	790.3
scalar RSUExampleScenario.node[119].veinsmobility 	minSpeed 	0.25265300005581
scalar RSUExampleScenario.node[119].veinsmobility 	maxSpeed 	9.9998856586963
scalar RSUExampleScenario.node[119].veinsmobility 	totalDistance 	3410.4659453949
scalar RSUExampleScenario.node[119].veinsmobility 	totalCO2Emission 	902.41347583204
scalar RSUExampleScenario.node[120].veinsmobility 	startTime 	255.8
scalar RSUExampleScenario.node[120].veinsmobility 	totalTime 	538
scalar RSUExampleScenario.node[120].veinsmobility 	stopTime 	793.9
scalar RSUExampleScenario.node[120].veinsmobility 	minSpeed 	0.25578897889657
scalar RSUExampleScenario.node[120].veinsmobility 	maxSpeed 	9.9998934480711
scalar RSUExampleScenario.node[120].veinsmobility 	totalDistance 	3414.7635780367
scalar RSUExampleScenario.node[120].veinsmobility 	totalCO2Emission 	905.42919433475
scalar RSUExampleScenario.node[121].veinsmobility 	startTime 	257.9
scalar RSUExampleScenario.node[121].veinsmobility 	totalTime 	539.5
scalar RSUExampleScenario.node[121].veinsmobility 	stopTime 	797.5
scalar RSUExampleScenario.node[121].veinsmobility 	minSpeed 	0.25321348740719
scalar RSUExampleScenario.node[121].veinsmobility 	maxSpeed 	9.9999611828243
scalar RSUExampleScenario.node[121].veinsmobility 	totalDistance 	3410.368091456
scalar RSUExampleScenario.node[121].veinsmobility 	totalCO2Emission 	906.88920091583
scalar RSUExampleScenario.node[122].veinsmobility 	startTime 	260.1
scalar RSUExampleScenario.node[122].veinsmobility 	totalTime 	541
scalar RSUExampleScenario.node[122].veinsmobility 	stopTime 	801.2
scalar RSUExampleScenario.node[122].veinsmobility 	minSpeed 	0.2562766190113
scalar RSUExampleScenario.node[122].veinsmobility 	maxSpeed 	9.9999699838157
scalar RSUExampleScenario.node[122].veinsmobility 	totalDistance 	3414.4452518578
scalar RSUExampleScenario.node[122].veinsmobility 	totalCO2Emission 	907.59451861341
scalar RSUExampleScenario.node[123].veinsmobility 	startTime 	262.3
scalar RSUExampleScenario.node[123].veinsmobility 	totalTime 	542.5
scalar RSUExampleScenario.node[123].veinsmobility 	stopTime 	804.9
scalar RSUExampleScenario.node[123].veinsmobility 	minSpeed 	0.25161484317225
scalar RSUExampleScenario.node[123].veinsmobility 	maxSpeed 	9.9999786727852
scalar RSUExampleScenario.node[123].veinsmobility 	totalDistance 	3410.5013620032
scalar RSUExampleScenario.node[123].veinsmobility 	totalCO2Emission 	907.00594592556
scalar RSUExampleScenario.node[124].veinsmobility 	startTime 	264.4
scalar RSUExampleScenario.node[124].veinsmobility 	totalTime 	544.2
scalar RSUExampleScenario.node[124].veinsmobility 	stopTime 	808.7
scalar RSUExampleScenario.node[124].veinsmobility 	minSpeed 	0.25311746436288
scalar RSUExampleScenario.node[124].veinsmobility 	maxSpeed 	9.9998363938299
scalar RSUExampleScenario.node[124].veinsmobility 	totalDistance 	3414.8318845075
scalar RSUExampleScenario.node[124].veinsmobility 	totalCO2Emission 	908.96754096808
scalar RSUExampleScenario.node[125].veinsmobility 	startTime 	266.5
scalar RSUExampleScenario.node[125].veinsmobility 	totalTime 	545.9
scalar RSUExampleScenario.node[125].veinsmobility 	stopTime 	812.5
scalar RSUExampleScenario.node[125].veinsmobility 	minSpeed 	0.24854617130128
scalar RSUExampleScenario.node[125].veinsmobility 	maxSpeed 	9.9999877151335
scalar RSUExampleScenario.node[125].veinsmobility 	totalDistance 	3410.6273009621
scalar RSUExampleScenario.node[125].veinsmobility 	totalCO2Emission 	911.21412317606
scalar RSUExampleScenario.node[126].veinsmobility 	startTime 	268.6
scalar RSUExampleScenario.node[126].veinsmobility 	totalTime 	547.5
scalar RSUExampleScenario.node[126].veinsmobility 	stopTime 	816.2
scalar RSUExampleScenario.node[126].veinsmobility 	minSpeed 	0.25906533790636
scalar RSUExampleScenario.node[126].veinsmobility 	maxSpeed 	9.9999373178207
scalar RSUExampleScenario.node[126].veinsmobility 	totalDistance 	3414.5745689118
scalar RSUExampleScenario.node[126].veinsmobility 	totalCO2Emission 	914.42791352637
scalar RSUExampleScenario.node[127].veinsmobility 	startTime 	270.7
scalar RSUExampleScenario.node[127].veinsmobility 	totalTime 	549.1
scalar RSUExampleScenario.node[127].veinsmobility 	stopTime 	819.9
scalar RSUExampleScenario.node[127].veinsmobility 	minSpeed 	0.25050383114303
scalar RSUExampleScenario.node[127].veinsmobility 	maxSpeed 	9.9999694038206
scalar RSUExampleScenario.node[127].veinsmobility 	totalDistance 	3410.3014319616
scalar RSUExampleScenario.node[127].veinsmobility 	totalCO2Emission 	913.32467897384
scalar RSUExampleScenario.node[128].veinsmobility 	startTime 	272.9
scalar RSUExampleScenario.node[128].veinsmobility 	totalTime 	550.6
scalar RSUExampleScenario.node[128].veinsmobility 	stopTime 	823.6
scalar RSUExampleScenario.node[128].veinsmobility 	minSpeed 	0.25614679094241
scalar RSUExampleScenario.node[128].veinsmobility 	maxSpeed 	9.9999889996159
scalar RSUExampleScenario.node[128].veinsmobility 	totalDistance 	3414.6537591007
scalar RSUExampleScenario.node[128].veinsmobility 	totalCO2Emission 	915.87969140761
scalar RSUExampleScenario.node[129].veinsmobility 	startTime 	275
scalar RSUExampleScenario.node[129].veinsmobility 	totalTime 	552.2
scalar RSUExampleScenario.node[129].veinsmobility 	stopTime 	827.3
scalar RSUExampleScenario.node[129].veinsmobility 	minSpeed 	0.25845808142005
scalar RSUExampleScenario.node[129].veinsmobility 	maxSpeed 	9.9999852481415
scalar RSUExampleScenario.node[129].veinsmobility 	totalDistance 	3410.6224835569
scalar RSUExampleScenario.node[129].veinsmobility 	totalCO2Emission 	921.63259399761
scalar RSUExampleScenario.node[130].veinsmobility 	startTime 	277.1
scalar RSUExampleScenario.node[130].veinsmobility 	totalTime 	553.8
scalar RSUExampleScenario.node[130].veinsmobility 	stopTime 	831
scalar RSUExampleScenario.node[130].veinsmobility 	minSpeed 	0.24808004192216
scalar RSUExampleScenario.node[130].veinsmobility 	maxSpeed 	9.9999865067448
scalar RSUExampleScenario.node[130].veinsmobility 	totalDistance 	3414.392352682
scalar RSUExampleScenario.node[130].veinsmobility 	totalCO2Emission 	918.58714691871
scalar RSUExampleScenario.node[131].veinsmobility 	startTime 	279.2
scalar RSUExampleScenario.node[131].veinsmobility 	totalTime 	555.4
scalar RSUExampleScenario.node[131].veinsmobility 	stopTime 	834.7
scalar RSUExampleScenario.node[131].veinsmobility 	minSpeed 	0.25867223487468
scalar RSUExampleScenario.node[131].veinsmobility 	maxSpeed 	9.9999603439472
scalar RSUExampleScenario.node[131].veinsmobility 	totalDistance 	3410.6221353412
scalar RSUExampleScenario.node[131].veinsmobility 	totalCO2Emission 	916.7185202748
scalar RSUExampleScenario.node[132].veinsmobility 	startTime 	281.3
scalar RSUExampleScenario.node[132].veinsmobility 	totalTime 	557
scalar RSUExampleScenario.node[132].veinsmobility 	stopTime 	838.4
scalar RSUExampleScenario.node[132].veinsmobility 	minSpeed 	0.25701389431232
scalar RSUExampleScenario.node[132].veinsmobility 	maxSpeed 	9.9999962194078
scalar RSUExampleScenario.node[132].veinsmobility 	totalDistance 	3414.4367544229
scalar RSUExampleScenario.node[132].veinsmobility 	totalCO2Emission 	921.79001733937
scalar RSUExampleScenario.node[133].veinsmobility 	startTime 	283.4
scalar RSUExampleScenario.node[133].veinsmobility 	totalTime 	558.6
scalar RSUExampleScenario.node[133].veinsmobility 	stopTime 	842.1
scalar RSUExampleScenario.node[133].veinsmobility 	minSpeed 	0.24827202140307
scalar RSUExampleScenario.node[133].veinsmobility 	maxSpeed 	9.999978293376
scalar RSUExampleScenario.node[133].veinsmobility 	totalDistance 	3410.138048031
scalar RSUExampleScenario.node[133].veinsmobility 	totalCO2Emission 	920.71146300986
scalar RSUExampleScenario.node[134].veinsmobility 	startTime 	285.5
scalar RSUExampleScenario.node[134].veinsmobility 	totalTime 	560.3
scalar RSUExampleScenario.node[134].veinsmobility 	stopTime 	845.9
scalar RSUExampleScenario.node[134].veinsmobility 	minSpeed 	0.2477509964318
scalar RSUExampleScenario.node[134].veinsmobility 	maxSpeed 	9.9999926490569
scalar RSUExampleScenario.node[134].veinsmobility 	totalDistance 	3414.7767742417
scalar RSUExampleScenario.node[134].veinsmobility 	totalCO2Emission 	923.24465537068
scalar RSUExampleScenario.node[135].veinsmobility 	startTime 	287.6
scalar RSUExampleScenario.node[135].veinsmobility 	totalTime 	561.8
scalar RSUExampleScenario.node[135].veinsmobility 	stopTime 	849.5
scalar RSUExampleScenario.node[135].veinsmobility 	minSpeed 	0.2541974550928
scalar RSUExampleScenario.node[135].veinsmobility 	maxSpeed 	9.9999373759353
scalar RSUExampleScenario.node[135].veinsmobility 	totalDistance 	3410.0381423668
scalar RSUExampleScenario.node[135].veinsmobility 	totalCO2Emission 	924.59853035576
scalar RSUExampleScenario.node[136].veinsmobility 	startTime 	289.7
scalar RSUExampleScenario.node[136].veinsmobility 	totalTime 	563.4
scalar RSUExampleScenario.node[136].veinsmobility 	stopTime 	853.2
scalar RSUExampleScenario.node[136].veinsmobility 	minSpeed 	0.25850912427017
scalar RSUExampleScenario.node[136].veinsmobility 	maxSpeed 	9.9999434680329
scalar RSUExampleScenario.node[136].veinsmobility 	totalDistance 	3414.3972982966
scalar RSUExampleScenario.node[136].veinsmobility 	totalCO2Emission 	927.66563237621
scalar RSUExampleScenario.node[137].veinsmobility 	startTime 	291.8
scalar RSUExampleScenario.node[137].veinsmobility 	totalTime 	565
scalar RSUExampleScenario.node[137].veinsmobility 	stopTime 	856.9
scalar RSUExampleScenario.node[137].veinsmobility 	minSpeed 	0.2513884559616
scalar RSUExampleScenario.node[137].veinsmobility 	maxSpeed 	9.9999971321085
scalar RSUExampleScenario.node[137].veinsmobility 	totalDistance 	3410.3681627093
scalar RSUExampleScenario.node[137].veinsmobility 	totalCO2Emission 	929.5073690047
scalar RSUExampleScenario.node[138].veinsmobility 	startTime 	294
scalar RSUExampleScenario.node[138].veinsmobility 	totalTime 	566.5
scalar RSUExampleScenario.node[138].veinsmobility 	stopTime 	860.6
scalar RSUExampleScenario.node[138].veinsmobility 	minSpeed 	0.25288748418516
scalar RSUExampleScenario.node[138].veinsmobility 	maxSpeed 	9.9999985646014
scalar RSUExampleScenario.node[138].veinsmobility 	totalDistance 	3414.2997316552
scalar RSUExampleScenario.node[138].veinsmobility 	totalCO2Emission 	926.88301792431
scalar RSUExampleScenario.node[139].veinsmobility 	startTime 	296.1
scalar RSUExampleScenario.node[139].veinsmobility 	totalTime 	568.1
scalar RSUExampleScenario.node[139].veinsmobility 	stopTime 	864.3
scalar RSUExampleScenario.node[139].veinsmobility 	minSpeed 	0.25654433903936
scalar RSUExampleScenario.node[139].veinsmobility 	maxSpeed 	9.9998990228586
scalar RSUExampleScenario.node[139].veinsmobility 	totalDistance 	3410.6847259035
scalar RSUExampleScenario.node[139].veinsmobility 	totalCO2Emission 	931.25401163435
scalar RSUExampleScenario.node[140].veinsmobility 	startTime 	298.2
scalar RSUExampleScenario.node[140].veinsmobility 	totalTime 	569.7
scalar RSUExampleScenario.node[140].veinsmobility 	stopTime 	868
scalar RSUExampleScenario.node[140].veinsmobility 	minSpeed 	0.25138113374589
scalar RSUExampleScenario.node[140].veinsmobility 	maxSpeed 	9.999981281159
scalar RSUExampleScenario.node[140].veinsmobility 	totalDistance 	3414.7213494962
scalar RSUExampleScenario.node[140].veinsmobility 	totalCO2Emission 	928.7751157387
scalar RSUExampleScenario.node[141].veinsmobility 	startTime 	300.3
scalar RSUExampleScenario.node[141].veinsmobility 	totalTime 	571.3
scalar RSUExampleScenario.node[141].veinsmobility 	stopTime 	871.7
scalar RSUExampleScenario.node[141].veinsmobility 	minSpeed 	0.25814675213769
scalar RSUExampleScenario.node[141].veinsmobility 	maxSpeed 	9.9999596945476
scalar RSUExampleScenario.node[141].veinsmobility 	totalDistance 	3410.0576350837
scalar RSUExampleScenario.node[141].veinsmobility 	totalCO2Emission 	927.99016785724
scalar RSUExampleScenario.node[142].veinsmobility 	startTime 	302.5
scalar RSUExampleScenario.node[142].veinsmobility 	totalTime 	572.8
scalar RSUExampleScenario.node[142].veinsmobility 	stopTime 	875.4
scalar RSUExampleScenario.node[142].veinsmobility 	minSpeed 	0.25763313787361
scalar RSUExampleScenario.node[142].veinsmobility 	maxSpeed 	9.9999663186353
scalar RSUExampleScenario.node[142].veinsmobility 	totalDistance 	3414.5100302391
scalar RSUExampleScenario.node[142].veinsmobility 	totalCO2Emission 	930.70973828091
scalar RSUExampleScenario.node[143].veinsmobility 	startTime 	304.6
scalar RSUExampleScenario.node[143].veinsmobility 	totalTime 	574.3
scalar RSUExampleScenario.node[143].veinsmobility 	stopTime 	879
scalar RSUExampleScenario.node[143].veinsmobility 	minSpeed 	0.256740043147
scalar RSUExampleScenario.node[143].veinsmobility 	maxSpeed 	9.9999602144607
scalar RSUExampleScenario.node[143].veinsmobility 	totalDistance 	3410.4272310447
scalar RSUExampleScenario.node[143].veinsmobility 	totalCO2Emission 	931.67604409919
scalar RSUExampleScenario.node[144].veinsmobility 	startTime 	306.8
scalar RSUExampleScenario.node[144].veinsmobility 	totalTime 	575.8
scalar RSUExampleScenario.node[144].veinsmobility 	stopTime 	882.7
scalar RSUExampleScenario.node[144].veinsmobility 	minSpeed 	0.25914611207973
scalar RSUExampleScenario.node[144].veinsmobility 	maxSpeed 	9.9999851842155
scalar RSUExampleScenario.node[144].veinsmobility 	totalDistance 	3414.9214858341
scalar RSUExampleScenario.node[144].veinsmobility 	totalCO2Emission 	932.81871920342
scalar RSUExampleScenario.node[145].veinsmobility 	startTime 	308.9
scalar RSUExampleScenario.node[145].veinsmobility 	totalTime 	577.4
scalar RSUExampleScenario.node[145].veinsmobility 	stopTime 	886.4
scalar RSUExampleScenario.node[145].veinsmobility 	minSpeed 	0.25094933641446
scalar RSUExampleScenario.node[145].veinsmobility 	maxSpeed 	9.9998889237642
scalar RSUExampleScenario.node[145].veinsmobility 	totalDistance 	3410.6310723737
scalar RSUExampleScenario.node[145].veinsmobility 	totalCO2Emission 	931.91981781698
scalar RSUExampleScenario.node[146].veinsmobility 	startTime 	311
scalar RSUExampleScenario.node[146].veinsmobility 	totalTime 	579
scalar RSUExampleScenario.node[146].veinsmobility 	stopTime 	890.1
scalar RSUExampleScenario.node[146].veinsmobility 	minSpeed 	0.25529949262249
scalar RSUExampleScenario.node[146].veinsmobility 	maxSpeed 	9.9999307216401
scalar RSUExampleScenario.node[146].veinsmobility 	totalDistance 	3414.4850517747
scalar RSUExampleScenario.node[146].veinsmobility 	totalCO2Emission 	938.25250434595
scalar RSUExampleScenario.node[147].veinsmobility 	startTime 	313.1
scalar RSUExampleScenario.node[147].veinsmobility 	totalTime 	580.7
scalar RSUExampleScenario.node[147].veinsmobility 	stopTime 	893.9
scalar RSUExampleScenario.node[147].veinsmobility 	minSpeed 	0.25753323784564
scalar RSUExampleScenario.node[147].veinsmobility 	maxSpeed 	9.9998530555679
scalar RSUExampleScenario.node[147].veinsmobility 	totalDistance 	3410.6802591845
scalar RSUExampleScenario.node[147].veinsmobility 	totalCO2Emission 	938.9525644923
scalar RSUExampleScenario.node[148].veinsmobility 	startTime 	315.3
scalar RSUExampleScenario.node[148].veinsmobility 	totalTime 	582.2
scalar RSUExampleScenario.node[148].veinsmobility 	stopTime 	897.6
scalar RSUExampleScenario.node[148].veinsmobility 	minSpeed 	0.25944048686908
scalar RSUExampleScenario.node[148].veinsmobility 	maxSpeed 	9.9999279877148
scalar RSUExampleScenario.node[148].veinsmobility 	totalDistance 	3414.5946943613
scalar RSUExampleScenario.node[148].veinsmobility 	totalCO2Emission 	940.99548139347
scalar RSUExampleScenario.node[149].veinsmobility 	startTime 	317.5
scalar RSUExampleScenario.node[149].veinsmobility 	totalTime 	583.8
scalar RSUExampleScenario.node[149].veinsmobility 	stopTime 	901.4
scalar RSUExampleScenario.node[149].veinsmobility 	minSpeed 	0.24988978318102
scalar RSUExampleScenario.node[149].veinsmobility 	maxSpeed 	9.9998904016893
scalar RSUExampleScenario.node[149].veinsmobility 	totalDistance 	3410.7683083293
scalar RSUExampleScenario.node[149].veinsmobility 	totalCO2Emission 	940.41336109686
scalar RSUExampleScenario.node[150].veinsmobility 	startTime 	319.6
scalar RSUExampleScenario.node[150].veinsmobility 	totalTime 	585.3
scalar RSUExampleScenario.node[150].veinsmobility 	stopTime 	905
scalar RSUExampleScenario.node[150].veinsmobility 	minSpeed 	0.25708874431788
scalar RSUExampleScenario.node[150].veinsmobility 	maxSpeed 	9.9999840504979
scalar RSUExampleScenario.node[150].veinsmobility 	totalDistance 	3414.0787806593
scalar RSUExampleScenario.node[150].veinsmobility 	totalCO2Emission 	945.60932745717
scalar RSUExampleScenario.node[151].veinsmobility 	startTime 	321.7
scalar RSUExampleScenario.node[151].veinsmobility 	totalTime 	586.9
scalar RSUExampleScenario.node[151].veinsmobility 	stopTime 	908.7
scalar RSUExampleScenario.node[151].veinsmobility 	minSpeed 	0.24921912323241
scalar RSUExampleScenario.node[151].veinsmobility 	maxSpeed 	9.9999372546514
scalar RSUExampleScenario.node[151].veinsmobility 	totalDistance 	3410.5604030319
scalar RSUExampleScenario.node[151].veinsmobility 	totalCO2Emission 	943.66365106796
scalar RSUExampleScenario.node[152].veinsmobility 	startTime 	323.9
scalar RSUExampleScenario.node[152].veinsmobility 	totalTime 	588.4
scalar RSUExampleScenario.node[152].veinsmobility 	stopTime 	912.4
scalar RSUExampleScenario.node[152].veinsmobility 	minSpeed 	0.25033032946405
scalar RSUExampleScenario.node[152].veinsmobility 	maxSpeed 	9.9999719236908
scalar RSUExampleScenario.node[152].veinsmobility 	totalDistance 	3414.7657944098
scalar RSUExampleScenario.node[152].veinsmobility 	totalCO2Emission 	947.45414378561
[...]
scalar RSUExampleScenario.node[903].veinsmobility 	totalCO2Emission 	172.67236799129
scalar RSUExampleScenario.node[904].veinsmobility 	startTime 	1920.1
scalar RSUExampleScenario.node[904].veinsmobility 	totalTime 	79.8
scalar RSUExampleScenario.node[904].veinsmobility 	stopTime 	2000
scalar RSUExampleScenario.node[904].veinsmobility 	minSpeed 	0.24988506104262
scalar RSUExampleScenario.node[904].veinsmobility 	maxSpeed 	9.9993166749948
scalar RSUExampleScenario.node[904].veinsmobility 	totalDistance 	655.8903911914
scalar RSUExampleScenario.node[904].veinsmobility 	totalCO2Emission 	169.05874528708
scalar RSUExampleScenario.node[905].veinsmobility 	startTime 	1922.2
scalar RSUExampleScenario.node[905].veinsmobility 	totalTime 	77.7
scalar RSUExampleScenario.node[905].veinsmobility 	stopTime 	2000
scalar RSUExampleScenario.node[905].veinsmobility 	minSpeed 	0.24762968209898
scalar RSUExampleScenario.node[905].veinsmobility 	maxSpeed 	9.9997719976958
scalar RSUExampleScenario.node[905].veinsmobility 	totalDistance 	634.79429182372
scalar RSUExampleScenario.node[905].veinsmobility 	totalCO2Emission 	163.64368432192
scalar RSUExampleScenario.node[906].veinsmobility 	startTime 	1924.3
scalar RSUExampleScenario.node[906].veinsmobility 	totalTime 	75.6
scalar RSUExampleScenario.node[906].veinsmobility 	stopTime 	2000
scalar RSUExampleScenario.node[906].veinsmobility 	minSpeed 	0.24771259587677
scalar RSUExampleScenario.node[906].veinsmobility 	maxSpeed 	9.9999729519244
scalar RSUExampleScenario.node[906].veinsmobility 	totalDistance 	613.85099880202
scalar RSUExampleScenario.node[906].veinsmobility 	totalCO2Emission 	159.81033983879
scalar RSUExampleScenario.node[907].veinsmobility 	startTime 	1926.5
scalar RSUExampleScenario.node[907].veinsmobility 	totalTime 	73.4
scalar RSUExampleScenario.node[907].veinsmobility 	stopTime 	2000
scalar RSUExampleScenario.node[907].veinsmobility 	minSpeed 	0.25778213564632
scalar RSUExampleScenario.node[907].veinsmobility 	maxSpeed 	9.9999318541773
scalar RSUExampleScenario.node[907].veinsmobility 	totalDistance 	591.85401650966
scalar RSUExampleScenario.node[907].veinsmobility 	totalCO2Emission 	157.39138732148
scalar RSUExampleScenario.node[908].veinsmobility 	startTime 	1928.7
scalar RSUExampleScenario.node[908].veinsmobility 	totalTime 	71.2
scalar RSUExampleScenario.node[908].veinsmobility 	stopTime 	2000
scalar RSUExampleScenario.node[908].veinsmobility 	minSpeed 	0.25768904556357
scalar RSUExampleScenario.node[908].veinsmobility 	maxSpeed 	9.9996794274566
scalar RSUExampleScenario.node[908].veinsmobility 	totalDistance 	571.22007723532
scalar RSUExampleScenario.node[908].veinsmobility 	totalCO2Emission 	151.57265975905
scalar RSUExampleScenario.node[909].veinsmobility 	startTime 	1930.8
scalar RSUExampleScenario.node[909].veinsmobility 	totalTime 	69.1
scalar RSUExampleScenario.node[909].veinsmobility 	stopTime 	2000
scalar RSUExampleScenario.node[909].veinsmobility 	minSpeed 	0.25279685258004
scalar RSUExampleScenario.node[909].veinsmobility 	maxSpeed 	9.9999958842201
scalar RSUExampleScenario.node[909].veinsmobility 	totalDistance 	550.45685265107
scalar RSUExampleScenario.node[909].veinsmobility 	totalCO2Emission 	147.45854601764
scalar RSUExampleScenario.node[910].veinsmobility 	startTime 	1932.9
scalar RSUExampleScenario.node[910].veinsmobility 	totalTime 	67
scalar RSUExampleScenario.node[910].veinsmobility 	stopTime 	2000
scalar RSUExampleScenario.node[910].veinsmobility 	minSpeed 	0.2547931714321
scalar RSUExampleScenario.node[910].veinsmobility 	maxSpeed 	9.9999421742279
scalar RSUExampleScenario.node[910].veinsmobility 	totalDistance 	528.24713419507
scalar RSUExampleScenario.node[910].veinsmobility 	totalCO2Emission 	144.135473038
scalar RSUExampleScenario.node[911].veinsmobility 	startTime 	1935
scalar RSUExampleScenario.node[911].veinsmobility 	totalTime 	64.9
scalar RSUExampleScenario.node[911].veinsmobility 	stopTime 	2000
scalar RSUExampleScenario.node[911].veinsmobility 	minSpeed 	0.24969229898299
scalar RSUExampleScenario.node[911].veinsmobility 	maxSpeed 	9.9990598759125
scalar RSUExampleScenario.node[911].veinsmobility 	totalDistance 	507.52996153199
scalar RSUExampleScenario.node[911].veinsmobility 	totalCO2Emission 	138.72216352646
scalar RSUExampleScenario.node[912].veinsmobility 	startTime 	1937.1
scalar RSUExampleScenario.node[912].veinsmobility 	totalTime 	62.8
scalar RSUExampleScenario.node[912].veinsmobility 	stopTime 	2000
scalar RSUExampleScenario.node[912].veinsmobility 	minSpeed 	0.25288732107403
scalar RSUExampleScenario.node[912].veinsmobility 	maxSpeed 	9.9996168511244
scalar RSUExampleScenario.node[912].veinsmobility 	totalDistance 	487.06199773775
scalar RSUExampleScenario.node[912].veinsmobility 	totalCO2Emission 	136.51521087325
scalar RSUExampleScenario.node[913].veinsmobility 	startTime 	1939.3
scalar RSUExampleScenario.node[913].veinsmobility 	totalTime 	60.6
scalar RSUExampleScenario.node[913].veinsmobility 	stopTime 	2000
scalar RSUExampleScenario.node[913].veinsmobility 	minSpeed 	0.24897514505056
scalar RSUExampleScenario.node[913].veinsmobility 	maxSpeed 	9.9992927426146
scalar RSUExampleScenario.node[913].veinsmobility 	totalDistance 	464.52652006095
scalar RSUExampleScenario.node[913].veinsmobility 	totalCO2Emission 	131.48875432541
scalar RSUExampleScenario.node[914].veinsmobility 	startTime 	1941.4
scalar RSUExampleScenario.node[914].veinsmobility 	totalTime 	58.5
scalar RSUExampleScenario.node[914].veinsmobility 	stopTime 	2000
scalar RSUExampleScenario.node[914].veinsmobility 	minSpeed 	0.25247470404627
scalar RSUExampleScenario.node[914].veinsmobility 	maxSpeed 	9.9998602387658
scalar RSUExampleScenario.node[914].veinsmobility 	totalDistance 	443.96142044558
scalar RSUExampleScenario.node[914].veinsmobility 	totalCO2Emission 	127.10691021472
scalar RSUExampleScenario.node[915].veinsmobility 	startTime 	1943.6
scalar RSUExampleScenario.node[915].veinsmobility 	totalTime 	56.3
scalar RSUExampleScenario.node[915].veinsmobility 	stopTime 	2000
scalar RSUExampleScenario.node[915].veinsmobility 	minSpeed 	0.25897325499682
scalar RSUExampleScenario.node[915].veinsmobility 	maxSpeed 	9.9987078980054
scalar RSUExampleScenario.node[915].veinsmobility 	totalDistance 	423.2227031615
scalar RSUExampleScenario.node[915].veinsmobility 	totalCO2Emission 	122.84368146879
scalar RSUExampleScenario.node[916].veinsmobility 	startTime 	1945.7
scalar RSUExampleScenario.node[916].veinsmobility 	totalTime 	54.2
scalar RSUExampleScenario.node[916].veinsmobility 	stopTime 	2000
scalar RSUExampleScenario.node[916].veinsmobility 	minSpeed 	0.24993833902897
scalar RSUExampleScenario.node[916].veinsmobility 	maxSpeed 	9.9971256637061
scalar RSUExampleScenario.node[916].veinsmobility 	totalDistance 	400.83852874552
scalar RSUExampleScenario.node[916].veinsmobility 	totalCO2Emission 	119.55053271671
scalar RSUExampleScenario.node[917].veinsmobility 	startTime 	1947.8
scalar RSUExampleScenario.node[917].veinsmobility 	totalTime 	52.1
scalar RSUExampleScenario.node[917].veinsmobility 	stopTime 	2000
scalar RSUExampleScenario.node[917].veinsmobility 	minSpeed 	0.25950701310649
scalar RSUExampleScenario.node[917].veinsmobility 	maxSpeed 	9.999734895383
scalar RSUExampleScenario.node[917].veinsmobility 	totalDistance 	379.83811903438
scalar RSUExampleScenario.node[917].veinsmobility 	totalCO2Emission 	115.39915231021
scalar RSUExampleScenario.node[918].veinsmobility 	startTime 	1950
scalar RSUExampleScenario.node[918].veinsmobility 	totalTime 	49.9
scalar RSUExampleScenario.node[918].veinsmobility 	stopTime 	2000
scalar RSUExampleScenario.node[918].veinsmobility 	minSpeed 	0.25570831445674
scalar RSUExampleScenario.node[918].veinsmobility 	maxSpeed 	9.9998230213136
scalar RSUExampleScenario.node[918].veinsmobility 	totalDistance 	359.73923430424
scalar RSUExampleScenario.node[918].veinsmobility 	totalCO2Emission 	111.37023868058
scalar RSUExampleScenario.node[919].veinsmobility 	startTime 	1952.1
scalar RSUExampleScenario.node[919].veinsmobility 	totalTime 	47.8
scalar RSUExampleScenario.node[919].veinsmobility 	stopTime 	2000
scalar RSUExampleScenario.node[919].veinsmobility 	minSpeed 	0.25937671855651
scalar RSUExampleScenario.node[919].veinsmobility 	maxSpeed 	9.9973631697334
scalar RSUExampleScenario.node[919].veinsmobility 	totalDistance 	338.44107063422
scalar RSUExampleScenario.node[919].veinsmobility 	totalCO2Emission 	107.71129322594
scalar RSUExampleScenario.node[921].veinsmobility 	startTime 	1954.2
scalar RSUExampleScenario.node[921].veinsmobility 	totalTime 	45.7
scalar RSUExampleScenario.node[921].veinsmobility 	stopTime 	2000
scalar RSUExampleScenario.node[921].veinsmobility 	minSpeed 	0.25359295686428
scalar RSUExampleScenario.node[921].veinsmobility 	maxSpeed 	9.9998491737898
scalar RSUExampleScenario.node[921].veinsmobility 	totalDistance 	317.18386303114
scalar RSUExampleScenario.node[921].veinsmobility 	totalCO2Emission 	102.94646123819
scalar RSUExampleScenario.node[922].veinsmobility 	startTime 	1956.4
scalar RSUExampleScenario.node[922].veinsmobility 	totalTime 	43.5
scalar RSUExampleScenario.node[922].veinsmobility 	stopTime 	2000
scalar RSUExampleScenario.node[922].veinsmobility 	minSpeed 	0.25977621890511
scalar RSUExampleScenario.node[922].veinsmobility 	maxSpeed 	9.9992391243647
scalar RSUExampleScenario.node[922].veinsmobility 	totalDistance 	296.23952162257
scalar RSUExampleScenario.node[922].veinsmobility 	totalCO2Emission 	98.45855442712
scalar RSUExampleScenario.node[923].veinsmobility 	startTime 	1958.6
scalar RSUExampleScenario.node[923].veinsmobility 	totalTime 	41.3
scalar RSUExampleScenario.node[923].veinsmobility 	stopTime 	2000
scalar RSUExampleScenario.node[923].veinsmobility 	minSpeed 	0.25218974062335
scalar RSUExampleScenario.node[923].veinsmobility 	maxSpeed 	9.9974307103781
scalar RSUExampleScenario.node[923].veinsmobility 	totalDistance 	275.50155507584
scalar RSUExampleScenario.node[923].veinsmobility 	totalCO2Emission 	94.442994478205
scalar RSUExampleScenario.node[924].veinsmobility 	startTime 	1960.8
scalar RSUExampleScenario.node[924].veinsmobility 	totalTime 	39.1
scalar RSUExampleScenario.node[924].veinsmobility 	stopTime 	2000
scalar RSUExampleScenario.node[924].veinsmobility 	minSpeed 	0.25396020333166
scalar RSUExampleScenario.node[924].veinsmobility 	maxSpeed 	9.9990716420161
scalar RSUExampleScenario.node[924].veinsmobility 	totalDistance 	254.33166666588
scalar RSUExampleScenario.node[924].veinsmobility 	totalCO2Emission 	91.201611838735
scalar RSUExampleScenario.node[925].veinsmobility 	startTime 	1962.9
scalar RSUExampleScenario.node[925].veinsmobility 	totalTime 	37
scalar RSUExampleScenario.node[925].veinsmobility 	stopTime 	2000
scalar RSUExampleScenario.node[925].veinsmobility 	minSpeed 	0.2593680948508
scalar RSUExampleScenario.node[925].veinsmobility 	maxSpeed 	9.9928146696137
scalar RSUExampleScenario.node[925].veinsmobility 	totalDistance 	234.13029298755
scalar RSUExampleScenario.node[925].veinsmobility 	totalCO2Emission 	82.178266457889
scalar RSUExampleScenario.node[926].veinsmobility 	startTime 	1965
scalar RSUExampleScenario.node[926].veinsmobility 	totalTime 	34.9
scalar RSUExampleScenario.node[926].veinsmobility 	stopTime 	2000
scalar RSUExampleScenario.node[926].veinsmobility 	minSpeed 	0.25424617704842
scalar RSUExampleScenario.node[926].veinsmobility 	maxSpeed 	9.9939226718945
scalar RSUExampleScenario.node[926].veinsmobility 	totalDistance 	222.83810276271
scalar RSUExampleScenario.node[926].veinsmobility 	totalCO2Emission 	72.984365673732
scalar RSUExampleScenario.node[927].veinsmobility 	startTime 	1967.1
scalar RSUExampleScenario.node[927].veinsmobility 	totalTime 	32.8
scalar RSUExampleScenario.node[927].veinsmobility 	stopTime 	2000
scalar RSUExampleScenario.node[927].veinsmobility 	minSpeed 	0.24957047221321
scalar RSUExampleScenario.node[927].veinsmobility 	maxSpeed 	9.9867503682128
scalar RSUExampleScenario.node[927].veinsmobility 	totalDistance 	212.67845809706
scalar RSUExampleScenario.node[927].veinsmobility 	totalCO2Emission 	68.743909731575
scalar RSUExampleScenario.node[928].veinsmobility 	startTime 	1969.2
scalar RSUExampleScenario.node[928].veinsmobility 	totalTime 	30.7
scalar RSUExampleScenario.node[928].veinsmobility 	stopTime 	2000
scalar RSUExampleScenario.node[928].veinsmobility 	minSpeed 	0.2470735448834
scalar RSUExampleScenario.node[928].veinsmobility 	maxSpeed 	9.9994641782041
scalar RSUExampleScenario.node[928].veinsmobility 	totalDistance 	202.04489925444
scalar RSUExampleScenario.node[928].veinsmobility 	totalCO2Emission 	66.307122495422
scalar RSUExampleScenario.node[929].veinsmobility 	startTime 	1971.3
scalar RSUExampleScenario.node[929].veinsmobility 	totalTime 	28.6
scalar RSUExampleScenario.node[929].veinsmobility 	stopTime 	2000
scalar RSUExampleScenario.node[929].veinsmobility 	minSpeed 	0.25660352355638
scalar RSUExampleScenario.node[929].veinsmobility 	maxSpeed 	9.9889375975775
scalar RSUExampleScenario.node[929].veinsmobility 	totalDistance 	190.45563697625
scalar RSUExampleScenario.node[929].veinsmobility 	totalCO2Emission 	62.785124682591
scalar RSUExampleScenario.node[930].veinsmobility 	startTime 	1973.4
scalar RSUExampleScenario.node[930].veinsmobility 	totalTime 	26.5
scalar RSUExampleScenario.node[930].veinsmobility 	stopTime 	2000
scalar RSUExampleScenario.node[930].veinsmobility 	minSpeed 	0.24880871914839
scalar RSUExampleScenario.node[930].veinsmobility 	maxSpeed 	9.9947446270799
scalar RSUExampleScenario.node[930].veinsmobility 	totalDistance 	177.2100764444
scalar RSUExampleScenario.node[930].veinsmobility 	totalCO2Emission 	60.54775036493
scalar RSUExampleScenario.node[931].veinsmobility 	startTime 	1975.5
scalar RSUExampleScenario.node[931].veinsmobility 	totalTime 	24.4
scalar RSUExampleScenario.node[931].veinsmobility 	stopTime 	2000
scalar RSUExampleScenario.node[931].veinsmobility 	minSpeed 	0.25215599625884
scalar RSUExampleScenario.node[931].veinsmobility 	maxSpeed 	9.9971293012518
scalar RSUExampleScenario.node[931].veinsmobility 	totalDistance 	161.39443777969
scalar RSUExampleScenario.node[931].veinsmobility 	totalCO2Emission 	57.761684833614
scalar RSUExampleScenario.node[932].veinsmobility 	startTime 	1977.6
scalar RSUExampleScenario.node[932].veinsmobility 	totalTime 	22.3
scalar RSUExampleScenario.node[932].veinsmobility 	stopTime 	2000
scalar RSUExampleScenario.node[932].veinsmobility 	minSpeed 	0.25001579429675
scalar RSUExampleScenario.node[932].veinsmobility 	maxSpeed 	9.9926034378307
scalar RSUExampleScenario.node[932].veinsmobility 	totalDistance 	140.46414914724
scalar RSUExampleScenario.node[932].veinsmobility 	totalCO2Emission 	54.667827348273
scalar RSUExampleScenario.node[933].veinsmobility 	startTime 	1979.8
scalar RSUExampleScenario.node[933].veinsmobility 	totalTime 	20.1
scalar RSUExampleScenario.node[933].veinsmobility 	stopTime 	2000
scalar RSUExampleScenario.node[933].veinsmobility 	minSpeed 	0.25932124188566
scalar RSUExampleScenario.node[933].veinsmobility 	maxSpeed 	9.9856025208253
scalar RSUExampleScenario.node[933].veinsmobility 	totalDistance 	123.06126760911
scalar RSUExampleScenario.node[933].veinsmobility 	totalCO2Emission 	44.785112795123
scalar RSUExampleScenario.node[934].veinsmobility 	startTime 	1981.9
scalar RSUExampleScenario.node[934].veinsmobility 	totalTime 	18
scalar RSUExampleScenario.node[934].veinsmobility 	stopTime 	2000
scalar RSUExampleScenario.node[934].veinsmobility 	minSpeed 	0.25367306538112
scalar RSUExampleScenario.node[934].veinsmobility 	maxSpeed 	9.9966146306926
scalar RSUExampleScenario.node[934].veinsmobility 	totalDistance 	112.82731169692
scalar RSUExampleScenario.node[934].veinsmobility 	totalCO2Emission 	38.727532662807
scalar RSUExampleScenario.node[936].veinsmobility 	startTime 	1984.1
scalar RSUExampleScenario.node[936].veinsmobility 	totalTime 	15.8
scalar RSUExampleScenario.node[936].veinsmobility 	stopTime 	2000
scalar RSUExampleScenario.node[936].veinsmobility 	minSpeed 	0.24732471131789
scalar RSUExampleScenario.node[936].veinsmobility 	maxSpeed 	9.9967334469967
scalar RSUExampleScenario.node[936].veinsmobility 	totalDistance 	102.49945641015
scalar RSUExampleScenario.node[936].veinsmobility 	totalCO2Emission 	33.82383635982
scalar RSUExampleScenario.node[937].veinsmobility 	startTime 	1986.2
scalar RSUExampleScenario.node[937].veinsmobility 	totalTime 	13.7
scalar RSUExampleScenario.node[937].veinsmobility 	stopTime 	2000
scalar RSUExampleScenario.node[937].veinsmobility 	minSpeed 	0.25935375315067
scalar RSUExampleScenario.node[937].veinsmobility 	maxSpeed 	9.9893072628835
scalar RSUExampleScenario.node[937].veinsmobility 	totalDistance 	91.657057217801
scalar RSUExampleScenario.node[937].veinsmobility 	totalCO2Emission 	30.502965563647
scalar RSUExampleScenario.node[938].veinsmobility 	startTime 	1988.4
scalar RSUExampleScenario.node[938].veinsmobility 	totalTime 	11.5
scalar RSUExampleScenario.node[938].veinsmobility 	stopTime 	2000
scalar RSUExampleScenario.node[938].veinsmobility 	minSpeed 	0.25584253637143
scalar RSUExampleScenario.node[938].veinsmobility 	maxSpeed 	9.9915303816926
scalar RSUExampleScenario.node[938].veinsmobility 	totalDistance 	79.69765145514
scalar RSUExampleScenario.node[938].veinsmobility 	totalCO2Emission 	27.66355293925
scalar RSUExampleScenario.node[939].veinsmobility 	startTime 	1990.5
scalar RSUExampleScenario.node[939].veinsmobility 	totalTime 	9.4
scalar RSUExampleScenario.node[939].veinsmobility 	stopTime 	2000
scalar RSUExampleScenario.node[939].veinsmobility 	minSpeed 	0.24887110082712
scalar RSUExampleScenario.node[939].veinsmobility 	maxSpeed 	9.9964990754914
scalar RSUExampleScenario.node[939].veinsmobility 	totalDistance 	65.739142404955
scalar RSUExampleScenario.node[939].veinsmobility 	totalCO2Emission 	25.228382004801
scalar RSUExampleScenario.node[940].veinsmobility 	startTime 	1992.6
scalar RSUExampleScenario.node[940].veinsmobility 	totalTime 	7.3
scalar RSUExampleScenario.node[940].veinsmobility 	stopTime 	2000
scalar RSUExampleScenario.node[940].veinsmobility 	minSpeed 	0.25468590858392
scalar RSUExampleScenario.node[940].veinsmobility 	maxSpeed 	9.9941510447394
scalar RSUExampleScenario.node[940].veinsmobility 	totalDistance 	48.197547088443
scalar RSUExampleScenario.node[940].veinsmobility 	totalCO2Emission 	22.847774315275
scalar RSUExampleScenario.node[941].veinsmobility 	startTime 	1994.7
scalar RSUExampleScenario.node[941].veinsmobility 	totalTime 	5.2
scalar RSUExampleScenario.node[941].veinsmobility 	stopTime 	2000
scalar RSUExampleScenario.node[941].veinsmobility 	minSpeed 	0.25016141777649
scalar RSUExampleScenario.node[941].veinsmobility 	maxSpeed 	9.9476824323228
scalar RSUExampleScenario.node[941].veinsmobility 	totalDistance 	28.008550764758
scalar RSUExampleScenario.node[941].veinsmobility 	totalCO2Emission 	19.297192451301
scalar RSUExampleScenario.node[942].veinsmobility 	startTime 	1996.8
scalar RSUExampleScenario.node[942].veinsmobility 	totalTime 	3.1
scalar RSUExampleScenario.node[942].veinsmobility 	stopTime 	2000
scalar RSUExampleScenario.node[942].veinsmobility 	minSpeed 	0.25071530576004
scalar RSUExampleScenario.node[942].veinsmobility 	maxSpeed 	6.5129884363839
scalar RSUExampleScenario.node[942].veinsmobility 	totalDistance 	10.604982873323
scalar RSUExampleScenario.node[942].veinsmobility 	totalCO2Emission 	9.1287594105396
scalar RSUExampleScenario.node[943].veinsmobility 	startTime 	1998.9
scalar RSUExampleScenario.node[943].veinsmobility 	totalTime 	1
scalar RSUExampleScenario.node[943].veinsmobility 	stopTime 	2000
scalar RSUExampleScenario.node[943].veinsmobility 	minSpeed 	0.25537658837019
scalar RSUExampleScenario.node[943].veinsmobility 	maxSpeed 	2.3465116013296
scalar RSUExampleScenario.node[943].veinsmobility 	totalDistance 	1.3192545479844
scalar RSUExampleScenario.node[943].veinsmobility 	totalCO2Emission 	1.7766483586904
