version 2
run statisticRVV-97-20150325-04:19:09-4232
attr c 4
attr configname statisticRVV
attr datetime 20150325-04:19:09
attr experiment statisticRVV
attr inifile omnetpp.ini
attr iterationvars "$sc=\"erlangen-low.launchd.xml\", $p=1/5, $c=4"
attr iterationvars2 "$sc=\"erlangen-low.launchd.xml\", $p=1/5, $c=4, $repetition=7"
attr measurement "$sc=\"erlangen-low.launchd.xml\", $p=1/5, $c=4"
attr network RSUExampleScenario
attr p 1/5
attr processid 4232
attr repetition 7
attr replication #7
attr resultdir results
attr runnumber 97
attr sc "\"erlangen-low.launchd.xml\""
attr seedset 97

scalar . 	c 	4
scalar RSUExampleScenario.node[0].veinsmobility 	startTime 	0.1
scalar RSUExampleScenario.node[0].veinsmobility 	totalTime 	226.6
scalar RSUExampleScenario.node[0].veinsmobility 	stopTime 	226.8
scalar RSUExampleScenario.node[0].veinsmobility 	minSpeed 	0.24911972638546
scalar RSUExampleScenario.node[0].veinsmobility 	maxSpeed 	18.999946100167
scalar RSUExampleScenario.node[0].veinsmobility 	totalDistance 	3409.3668896887
scalar RSUExampleScenario.node[0].veinsmobility 	totalCO2Emission 	708.3480637287
scalar RSUExampleScenario.node[1].veinsmobility 	startTime 	6.1
scalar RSUExampleScenario.node[1].veinsmobility 	totalTime 	226.7
scalar RSUExampleScenario.node[1].veinsmobility 	stopTime 	232.9
scalar RSUExampleScenario.node[1].veinsmobility 	minSpeed 	0.25810314478423
scalar RSUExampleScenario.node[1].veinsmobility 	maxSpeed 	18.99983302458
scalar RSUExampleScenario.node[1].veinsmobility 	totalDistance 	3409.2482010568
scalar RSUExampleScenario.node[1].veinsmobility 	totalCO2Emission 	703.53974878616
scalar RSUExampleScenario.node[2].veinsmobility 	startTime 	12.1
scalar RSUExampleScenario.node[2].veinsmobility 	totalTime 	226.8
scalar RSUExampleScenario.node[2].veinsmobility 	stopTime 	239
scalar RSUExampleScenario.node[2].veinsmobility 	minSpeed 	0.25581615969725
scalar RSUExampleScenario.node[2].veinsmobility 	maxSpeed 	18.999779292431
scalar RSUExampleScenario.node[2].veinsmobility 	totalDistance 	3409.3375942639
scalar RSUExampleScenario.node[2].veinsmobility 	totalCO2Emission 	710.51350102983
scalar RSUExampleScenario.node[3].veinsmobility 	startTime 	18.1
scalar RSUExampleScenario.node[3].veinsmobility 	totalTime 	226.9
scalar RSUExampleScenario.node[3].veinsmobility 	stopTime 	245.1
scalar RSUExampleScenario.node[3].veinsmobility 	minSpeed 	0.25509745130711
scalar RSUExampleScenario.node[3].veinsmobility 	maxSpeed 	18.999921391292
scalar RSUExampleScenario.node[3].veinsmobility 	totalDistance 	3409.2129907181
scalar RSUExampleScenario.node[3].veinsmobility 	totalCO2Emission 	702.04134984499
scalar RSUExampleScenario.node[4].veinsmobility 	startTime 	24.1
scalar RSUExampleScenario.node[4].veinsmobility 	totalTime 	226.8
scalar RSUExampleScenario.node[4].veinsmobility 	stopTime 	251
scalar RSUExampleScenario.node[4].veinsmobility 	minSpeed 	0.24742801293149
scalar RSUExampleScenario.node[4].veinsmobility 	maxSpeed 	18.999534162353
scalar RSUExampleScenario.node[4].veinsmobility 	totalDistance 	3409.5040751159
scalar RSUExampleScenario.node[4].veinsmobility 	totalCO2Emission 	704.90278822976
scalar RSUExampleScenario.node[5].veinsmobility 	startTime 	30.1
scalar RSUExampleScenario.node[5].veinsmobility 	totalTime 	227.1
scalar RSUExampleScenario.node[5].veinsmobility 	stopTime 	257.3
scalar RSUExampleScenario.node[5].veinsmobility 	minSpeed 	0.25760413211328
scalar RSUExampleScenario.node[5].veinsmobility 	maxSpeed 	18.999753787206
scalar RSUExampleScenario.node[5].veinsmobility 	totalDistance 	3409.3842718505
scalar RSUExampleScenario.node[5].veinsmobility 	totalCO2Emission 	710.00395653495
scalar RSUExampleScenario.node[6].veinsmobility 	startTime 	36.1
scalar RSUExampleScenario.node[6].veinsmobility 	totalTime 	226.9
scalar RSUExampleScenario.node[6].veinsmobility 	stopTime 	263.1
scalar RSUExampleScenario.node[6].veinsmobility 	minSpeed 	0.2541976112877
scalar RSUExampleScenario.node[6].veinsmobility 	maxSpeed 	18.999560186886
scalar RSUExampleScenario.node[6].veinsmobility 	totalDistance 	3409.3141169627
scalar RSUExampleScenario.node[6].veinsmobility 	totalCO2Emission 	705.28406910666
scalar RSUExampleScenario.node[7].veinsmobility 	startTime 	42.1
scalar RSUExampleScenario.node[7].veinsmobility 	totalTime 	227
scalar RSUExampleScenario.node[7].veinsmobility 	stopTime 	269.2
scalar RSUExampleScenario.node[7].veinsmobility 	minSpeed 	0.25064952224144
scalar RSUExampleScenario.node[7].veinsmobility 	maxSpeed 	18.999836114941
scalar RSUExampleScenario.node[7].veinsmobility 	totalDistance 	3409.7332478963
scalar RSUExampleScenario.node[7].veinsmobility 	totalCO2Emission 	705.37335121571
scalar RSUExampleScenario.node[8].veinsmobility 	startTime 	48.1
scalar RSUExampleScenario.node[8].veinsmobility 	totalTime 	226.8
scalar RSUExampleScenario.node[8].veinsmobility 	stopTime 	275
scalar RSUExampleScenario.node[8].veinsmobility 	minSpeed 	0.25537905769888
scalar RSUExampleScenario.node[8].veinsmobility 	maxSpeed 	18.999713580336
scalar RSUExampleScenario.node[8].veinsmobility 	totalDistance 	3409.3636242604
scalar RSUExampleScenario.node[8].veinsmobility 	totalCO2Emission 	706.8281340851
scalar RSUExampleScenario.node[9].veinsmobility 	startTime 	54.1
scalar RSUExampleScenario.node[9].veinsmobility 	totalTime 	226.8
scalar RSUExampleScenario.node[9].veinsmobility 	stopTime 	281
scalar RSUExampleScenario.node[9].veinsmobility 	minSpeed 	0.25017109614587
scalar RSUExampleScenario.node[9].veinsmobility 	maxSpeed 	18.99999986903
scalar RSUExampleScenario.node[9].veinsmobility 	totalDistance 	3409.9066216605
scalar RSUExampleScenario.node[9].veinsmobility 	totalCO2Emission 	706.87160765481
scalar RSUExampleScenario.node[10].veinsmobility 	startTime 	60.1
scalar RSUExampleScenario.node[10].veinsmobility 	totalTime 	227
scalar RSUExampleScenario.node[10].veinsmobility 	stopTime 	287.2
scalar RSUExampleScenario.node[10].veinsmobility 	minSpeed 	0.25713395040203
scalar RSUExampleScenario.node[10].veinsmobility 	maxSpeed 	18.999855548954
scalar RSUExampleScenario.node[10].veinsmobility 	totalDistance 	3409.3216910054
scalar RSUExampleScenario.node[10].veinsmobility 	totalCO2Emission 	709.49290887789
scalar RSUExampleScenario.node[11].veinsmobility 	startTime 	66.1
scalar RSUExampleScenario.node[11].veinsmobility 	totalTime 	226.7
scalar RSUExampleScenario.node[11].veinsmobility 	stopTime 	292.9
scalar RSUExampleScenario.node[11].veinsmobility 	minSpeed 	0.24871556641394
scalar RSUExampleScenario.node[11].veinsmobility 	maxSpeed 	18.999937696231
scalar RSUExampleScenario.node[11].veinsmobility 	totalDistance 	3409.4833499595
scalar RSUExampleScenario.node[11].veinsmobility 	totalCO2Emission 	709.13241611374
scalar RSUExampleScenario.node[12].veinsmobility 	startTime 	72.1
scalar RSUExampleScenario.node[12].veinsmobility 	totalTime 	227.1
scalar RSUExampleScenario.node[12].veinsmobility 	stopTime 	299.3
scalar RSUExampleScenario.node[12].veinsmobility 	minSpeed 	0.25157982277009
scalar RSUExampleScenario.node[12].veinsmobility 	maxSpeed 	18.999905475781
scalar RSUExampleScenario.node[12].veinsmobility 	totalDistance 	3409.548619212
scalar RSUExampleScenario.node[12].veinsmobility 	totalCO2Emission 	705.60759578144
scalar RSUExampleScenario.node[13].veinsmobility 	startTime 	78.1
scalar RSUExampleScenario.node[13].veinsmobility 	totalTime 	227.1
scalar RSUExampleScenario.node[13].veinsmobility 	stopTime 	305.3
scalar RSUExampleScenario.node[13].veinsmobility 	minSpeed 	0.25760648062732
scalar RSUExampleScenario.node[13].veinsmobility 	maxSpeed 	18.999939847286
scalar RSUExampleScenario.node[13].veinsmobility 	totalDistance 	3409.4993793707
scalar RSUExampleScenario.node[13].veinsmobility 	totalCO2Emission 	708.12815691167
scalar RSUExampleScenario.node[14].veinsmobility 	startTime 	84.1
scalar RSUExampleScenario.node[14].veinsmobility 	totalTime 	226.7
scalar RSUExampleScenario.node[14].veinsmobility 	stopTime 	310.9
scalar RSUExampleScenario.node[14].veinsmobility 	minSpeed 	0.25320186483138
scalar RSUExampleScenario.node[14].veinsmobility 	maxSpeed 	18.999829158632
scalar RSUExampleScenario.node[14].veinsmobility 	totalDistance 	3409.4758403049
scalar RSUExampleScenario.node[14].veinsmobility 	totalCO2Emission 	704.20611438855
scalar RSUExampleScenario.node[15].veinsmobility 	startTime 	90.1
scalar RSUExampleScenario.node[15].veinsmobility 	totalTime 	226.7
scalar RSUExampleScenario.node[15].veinsmobility 	stopTime 	316.9
scalar RSUExampleScenario.node[15].veinsmobility 	minSpeed 	0.24992500459589
scalar RSUExampleScenario.node[15].veinsmobility 	maxSpeed 	18.999861819178
scalar RSUExampleScenario.node[15].veinsmobility 	totalDistance 	3409.4983826942
scalar RSUExampleScenario.node[15].veinsmobility 	totalCO2Emission 	707.45498528822
scalar RSUExampleScenario.node[16].veinsmobility 	startTime 	96.1
scalar RSUExampleScenario.node[16].veinsmobility 	totalTime 	226.9
scalar RSUExampleScenario.node[16].veinsmobility 	stopTime 	323.1
scalar RSUExampleScenario.node[16].veinsmobility 	minSpeed 	0.25856204659259
scalar RSUExampleScenario.node[16].veinsmobility 	maxSpeed 	18.999882267441
scalar RSUExampleScenario.node[16].veinsmobility 	totalDistance 	3409.268844412
scalar RSUExampleScenario.node[16].veinsmobility 	totalCO2Emission 	708.64275459892
scalar RSUExampleScenario.node[17].veinsmobility 	startTime 	102.1
scalar RSUExampleScenario.node[17].veinsmobility 	totalTime 	226.7
scalar RSUExampleScenario.node[17].veinsmobility 	stopTime 	328.9
scalar RSUExampleScenario.node[17].veinsmobility 	minSpeed 	0.25836689440953
scalar RSUExampleScenario.node[17].veinsmobility 	maxSpeed 	18.999999802955
scalar RSUExampleScenario.node[17].veinsmobility 	totalDistance 	3409.5187921192
scalar RSUExampleScenario.node[17].veinsmobility 	totalCO2Emission 	704.34969410803
scalar RSUExampleScenario.node[18].veinsmobility 	startTime 	108.1
scalar RSUExampleScenario.node[18].veinsmobility 	totalTime 	227
scalar RSUExampleScenario.node[18].veinsmobility 	stopTime 	335.2
scalar RSUExampleScenario.node[18].veinsmobility 	minSpeed 	0.25974494650867
scalar RSUExampleScenario.node[18].veinsmobility 	maxSpeed 	18.99988784126
scalar RSUExampleScenario.node[18].veinsmobility 	totalDistance 	3409.535072408
scalar RSUExampleScenario.node[18].veinsmobility 	totalCO2Emission 	711.18310589591
scalar RSUExampleScenario.node[19].veinsmobility 	startTime 	114.1
scalar RSUExampleScenario.node[19].veinsmobility 	totalTime 	227.2
scalar RSUExampleScenario.node[19].veinsmobility 	stopTime 	341.4
scalar RSUExampleScenario.node[19].veinsmobility 	minSpeed 	0.25849694783567
scalar RSUExampleScenario.node[19].veinsmobility 	maxSpeed 	18.99954591529
scalar RSUExampleScenario.node[19].veinsmobility 	totalDistance 	3409.2655114735
scalar RSUExampleScenario.node[19].veinsmobility 	totalCO2Emission 	706.83275756757
scalar RSUExampleScenario.node[20].veinsmobility 	startTime 	120.1
scalar RSUExampleScenario.node[20].veinsmobility 	totalTime 	226.8
scalar RSUExampleScenario.node[20].veinsmobility 	stopTime 	347
scalar RSUExampleScenario.node[20].veinsmobility 	minSpeed 	0.24753054698836
scalar RSUExampleScenario.node[20].veinsmobility 	maxSpeed 	18.999834326769
scalar RSUExampleScenario.node[20].veinsmobility 	totalDistance 	3409.3610408558
scalar RSUExampleScenario.node[20].veinsmobility 	totalCO2Emission 	708.66908334041
scalar RSUExampleScenario.node[21].veinsmobility 	startTime 	126.1
scalar RSUExampleScenario.node[21].veinsmobility 	totalTime 	226.7
scalar RSUExampleScenario.node[21].veinsmobility 	stopTime 	352.9
scalar RSUExampleScenario.node[21].veinsmobility 	minSpeed 	0.24900626865262
scalar RSUExampleScenario.node[21].veinsmobility 	maxSpeed 	18.999447101401
scalar RSUExampleScenario.node[21].veinsmobility 	totalDistance 	3409.1612420767
scalar RSUExampleScenario.node[21].veinsmobility 	totalCO2Emission 	704.55532653658
scalar RSUExampleScenario.node[22].veinsmobility 	startTime 	132.1
scalar RSUExampleScenario.node[22].veinsmobility 	totalTime 	226.9
scalar RSUExampleScenario.node[22].veinsmobility 	stopTime 	359.1
scalar RSUExampleScenario.node[22].veinsmobility 	minSpeed 	0.25602644264256
scalar RSUExampleScenario.node[22].veinsmobility 	maxSpeed 	18.999777802459
scalar RSUExampleScenario.node[22].veinsmobility 	totalDistance 	3409.4876741402
scalar RSUExampleScenario.node[22].veinsmobility 	totalCO2Emission 	708.05013185714
scalar RSUExampleScenario.node[23].veinsmobility 	startTime 	138.1
scalar RSUExampleScenario.node[23].veinsmobility 	totalTime 	226.8
scalar RSUExampleScenario.node[23].veinsmobility 	stopTime 	365
scalar RSUExampleScenario.node[23].veinsmobility 	minSpeed 	0.25666129999771
scalar RSUExampleScenario.node[23].veinsmobility 	maxSpeed 	18.99990307556
scalar RSUExampleScenario.node[23].veinsmobility 	totalDistance 	3409.507137511
scalar RSUExampleScenario.node[23].veinsmobility 	totalCO2Emission 	708.12137020143
scalar RSUExampleScenario.node[24].veinsmobility 	startTime 	144.1
scalar RSUExampleScenario.node[24].veinsmobility 	totalTime 	227.1
scalar RSUExampleScenario.node[24].veinsmobility 	stopTime 	371.3
scalar RSUExampleScenario.node[24].veinsmobility 	minSpeed 	0.24761812159675
scalar RSUExampleScenario.node[24].veinsmobility 	maxSpeed 	18.999883267102
scalar RSUExampleScenario.node[24].veinsmobility 	totalDistance 	3409.0958780336
scalar RSUExampleScenario.node[24].veinsmobility 	totalCO2Emission 	710.95537080374
scalar RSUExampleScenario.node[25].veinsmobility 	startTime 	150.1
scalar RSUExampleScenario.node[25].veinsmobility 	totalTime 	226.9
scalar RSUExampleScenario.node[25].veinsmobility 	stopTime 	377.1
scalar RSUExampleScenario.node[25].veinsmobility 	minSpeed 	0.24929896909883
scalar RSUExampleScenario.node[25].veinsmobility 	maxSpeed 	18.999462561773
scalar RSUExampleScenario.node[25].veinsmobility 	totalDistance 	3409.9286066187
scalar RSUExampleScenario.node[25].veinsmobility 	totalCO2Emission 	706.23152030764
scalar RSUExampleScenario.node[26].veinsmobility 	startTime 	156.1
scalar RSUExampleScenario.node[26].veinsmobility 	totalTime 	226.9
scalar RSUExampleScenario.node[26].veinsmobility 	stopTime 	383.1
scalar RSUExampleScenario.node[26].veinsmobility 	minSpeed 	0.25596502596466
scalar RSUExampleScenario.node[26].veinsmobility 	maxSpeed 	18.999850266706
scalar RSUExampleScenario.node[26].veinsmobility 	totalDistance 	3409.7022595186
scalar RSUExampleScenario.node[26].veinsmobility 	totalCO2Emission 	705.67354144157
scalar RSUExampleScenario.node[27].veinsmobility 	startTime 	162.1
scalar RSUExampleScenario.node[27].veinsmobility 	totalTime 	226.6
scalar RSUExampleScenario.node[27].veinsmobility 	stopTime 	388.8
scalar RSUExampleScenario.node[27].veinsmobility 	minSpeed 	0.25293357165786
scalar RSUExampleScenario.node[27].veinsmobility 	maxSpeed 	18.999909500696
scalar RSUExampleScenario.node[27].veinsmobility 	totalDistance 	3409.4210335266
scalar RSUExampleScenario.node[27].veinsmobility 	totalCO2Emission 	704.93722548988
scalar RSUExampleScenario.node[28].veinsmobility 	startTime 	168.1
scalar RSUExampleScenario.node[28].veinsmobility 	totalTime 	227
scalar RSUExampleScenario.node[28].veinsmobility 	stopTime 	395.2
scalar RSUExampleScenario.node[28].veinsmobility 	minSpeed 	0.25739374494925
scalar RSUExampleScenario.node[28].veinsmobility 	maxSpeed 	18.999939071881
scalar RSUExampleScenario.node[28].veinsmobility 	totalDistance 	3409.678304456
scalar RSUExampleScenario.node[28].veinsmobility 	totalCO2Emission 	707.96949972467
scalar RSUExampleScenario.node[29].veinsmobility 	startTime 	174.1
scalar RSUExampleScenario.node[29].veinsmobility 	totalTime 	227.1
scalar RSUExampleScenario.node[29].veinsmobility 	stopTime 	401.3
scalar RSUExampleScenario.node[29].veinsmobility 	minSpeed 	0.25112319540698
scalar RSUExampleScenario.node[29].veinsmobility 	maxSpeed 	18.999877953285
scalar RSUExampleScenario.node[29].veinsmobility 	totalDistance 	3409.3795596484
scalar RSUExampleScenario.node[29].veinsmobility 	totalCO2Emission 	707.37675646426
scalar RSUExampleScenario.node[30].veinsmobility 	startTime 	180.1
scalar RSUExampleScenario.node[30].veinsmobility 	totalTime 	226.9
scalar RSUExampleScenario.node[30].veinsmobility 	stopTime 	407.1
scalar RSUExampleScenario.node[30].veinsmobility 	minSpeed 	0.249143569584
scalar RSUExampleScenario.node[30].veinsmobility 	maxSpeed 	18.999646803776
scalar RSUExampleScenario.node[30].veinsmobility 	totalDistance 	3409.6305225602
scalar RSUExampleScenario.node[30].veinsmobility 	totalCO2Emission 	706.89085715589
scalar RSUExampleScenario.node[31].veinsmobility 	startTime 	186.1
scalar RSUExampleScenario.node[31].veinsmobility 	totalTime 	227.1
scalar RSUExampleScenario.node[31].veinsmobility 	stopTime 	413.3
scalar RSUExampleScenario.node[31].veinsmobility 	minSpeed 	0.25987133627385
scalar RSUExampleScenario.node[31].veinsmobility 	maxSpeed 	18.999886514856
scalar RSUExampleScenario.node[31].veinsmobility 	totalDistance 	3409.5376128681
scalar RSUExampleScenario.node[31].veinsmobility 	totalCO2Emission 	705.44650386327
scalar RSUExampleScenario.node[32].veinsmobility 	startTime 	192.1
scalar RSUExampleScenario.node[32].veinsmobility 	totalTime 	226.7
scalar RSUExampleScenario.node[32].veinsmobility 	stopTime 	418.9
scalar RSUExampleScenario.node[32].veinsmobility 	minSpeed 	0.25712370741065
scalar RSUExampleScenario.node[32].veinsmobility 	maxSpeed 	18.999413756132
scalar RSUExampleScenario.node[32].veinsmobility 	totalDistance 	3409.613144479
scalar RSUExampleScenario.node[32].veinsmobility 	totalCO2Emission 	707.58337857224
scalar RSUExampleScenario.node[33].veinsmobility 	startTime 	198.1
scalar RSUExampleScenario.node[33].veinsmobility 	totalTime 	227
scalar RSUExampleScenario.node[33].veinsmobility 	stopTime 	425.2
scalar RSUExampleScenario.node[33].veinsmobility 	minSpeed 	0.25152118491707
scalar RSUExampleScenario.node[33].veinsmobility 	maxSpeed 	18.999451092447
scalar RSUExampleScenario.node[33].veinsmobility 	totalDistance 	3409.5638127313
scalar RSUExampleScenario.node[33].veinsmobility 	totalCO2Emission 	704.57471173788
scalar RSUExampleScenario.node[34].veinsmobility 	startTime 	204.1
scalar RSUExampleScenario.node[34].veinsmobility 	totalTime 	227
scalar RSUExampleScenario.node[34].veinsmobility 	stopTime 	431.2
scalar RSUExampleScenario.node[34].veinsmobility 	minSpeed 	0.25271420414955
scalar RSUExampleScenario.node[34].veinsmobility 	maxSpeed 	18.99950973385
scalar RSUExampleScenario.node[34].veinsmobility 	totalDistance 	3409.1949146117
scalar RSUExampleScenario.node[34].veinsmobility 	totalCO2Emission 	706.92441842712
scalar RSUExampleScenario.node[35].veinsmobility 	startTime 	210.1
scalar RSUExampleScenario.node[35].veinsmobility 	totalTime 	227.1
scalar RSUExampleScenario.node[35].veinsmobility 	stopTime 	437.3
scalar RSUExampleScenario.node[35].veinsmobility 	minSpeed 	0.2549223568663
scalar RSUExampleScenario.node[35].veinsmobility 	maxSpeed 	18.999731095661
scalar RSUExampleScenario.node[35].veinsmobility 	totalDistance 	3409.6184426029
scalar RSUExampleScenario.node[35].veinsmobility 	totalCO2Emission 	705.82039178599
scalar RSUExampleScenario.node[36].veinsmobility 	startTime 	216.1
scalar RSUExampleScenario.node[36].veinsmobility 	totalTime 	226.7
scalar RSUExampleScenario.node[36].veinsmobility 	stopTime 	442.9
scalar RSUExampleScenario.node[36].veinsmobility 	minSpeed 	0.24721378625254
scalar RSUExampleScenario.node[36].veinsmobility 	maxSpeed 	18.999800933041
scalar RSUExampleScenario.node[36].veinsmobility 	totalDistance 	3409.3589035111
scalar RSUExampleScenario.node[36].veinsmobility 	totalCO2Emission 	705.00979873205
scalar RSUExampleScenario.node[37].veinsmobility 	startTime 	222.1
scalar RSUExampleScenario.node[37].veinsmobility 	totalTime 	226.9
scalar RSUExampleScenario.node[37].veinsmobility 	stopTime 	449.1
scalar RSUExampleScenario.node[37].veinsmobility 	minSpeed 	0.25321335075935
scalar RSUExampleScenario.node[37].veinsmobility 	maxSpeed 	18.999989929902
scalar RSUExampleScenario.node[37].veinsmobility 	totalDistance 	3409.7784628042
scalar RSUExampleScenario.node[37].veinsmobility 	totalCO2Emission 	705.26322860813
scalar RSUExampleScenario.node[38].veinsmobility 	startTime 	228.1
scalar RSUExampleScenario.node[38].veinsmobility 	totalTime 	226.9
scalar RSUExampleScenario.node[38].veinsmobility 	stopTime 	455.1
scalar RSUExampleScenario.node[38].veinsmobility 	minSpeed 	0.25603307424881
scalar RSUExampleScenario.node[38].veinsmobility 	maxSpeed 	18.999535786291
scalar RSUExampleScenario.node[38].veinsmobility 	totalDistance 	3409.2608682217
scalar RSUExampleScenario.node[38].veinsmobility 	totalCO2Emission 	708.83495828651
scalar RSUExampleScenario.node[39].veinsmobility 	startTime 	234.1
scalar RSUExampleScenario.node[39].veinsmobility 	totalTime 	226.9
scalar RSUExampleScenario.node[39].veinsmobility 	stopTime 	461.1
scalar RSUExampleScenario.node[39].veinsmobility 	minSpeed 	0.25424779018667
scalar RSUExampleScenario.node[39].veinsmobility 	maxSpeed 	18.999884997038
scalar RSUExampleScenario.node[39].veinsmobility 	totalDistance 	3409.5058847058
scalar RSUExampleScenario.node[39].veinsmobility 	totalCO2Emission 	706.16265737196
scalar RSUExampleScenario.node[40].veinsmobility 	startTime 	240.1
scalar RSUExampleScenario.node[40].veinsmobility 	totalTime 	227.1
scalar RSUExampleScenario.node[40].veinsmobility 	stopTime 	467.3
scalar RSUExampleScenario.node[40].veinsmobility 	minSpeed 	0.2490125825631
scalar RSUExampleScenario.node[40].veinsmobility 	maxSpeed 	18.999929566311
scalar RSUExampleScenario.node[40].veinsmobility 	totalDistance 	3409.6718628721
scalar RSUExampleScenario.node[40].veinsmobility 	totalCO2Emission 	705.0879865036
scalar RSUExampleScenario.node[41].veinsmobility 	startTime 	246.1
scalar RSUExampleScenario.node[41].veinsmobility 	totalTime 	226.7
scalar RSUExampleScenario.node[41].veinsmobility 	stopTime 	472.9
scalar RSUExampleScenario.node[41].veinsmobility 	minSpeed 	0.25670977064129
scalar RSUExampleScenario.node[41].veinsmobility 	maxSpeed 	18.999901366055
scalar RSUExampleScenario.node[41].veinsmobility 	totalDistance 	3409.470675488
scalar RSUExampleScenario.node[41].veinsmobility 	totalCO2Emission 	705.50502974525
scalar RSUExampleScenario.node[42].veinsmobility 	startTime 	252.1
scalar RSUExampleScenario.node[42].veinsmobility 	totalTime 	226.8
scalar RSUExampleScenario.node[42].veinsmobility 	stopTime 	479
scalar RSUExampleScenario.node[42].veinsmobility 	minSpeed 	0.24706985799177
scalar RSUExampleScenario.node[42].veinsmobility 	maxSpeed 	18.999616678748
scalar RSUExampleScenario.node[42].veinsmobility 	totalDistance 	3409.4098255005
scalar RSUExampleScenario.node[42].veinsmobility 	totalCO2Emission 	706.59972957353
scalar RSUExampleScenario.node[43].veinsmobility 	startTime 	258.1
scalar RSUExampleScenario.node[43].veinsmobility 	totalTime 	226.9
scalar RSUExampleScenario.node[43].veinsmobility 	stopTime 	485.1
scalar RSUExampleScenario.node[43].veinsmobility 	minSpeed 	0.24966324724862
scalar RSUExampleScenario.node[43].veinsmobility 	maxSpeed 	18.999974920948
scalar RSUExampleScenario.node[43].veinsmobility 	totalDistance 	3409.0887298311
scalar RSUExampleScenario.node[43].veinsmobility 	totalCO2Emission 	706.262133675
scalar RSUExampleScenario.node[44].veinsmobility 	startTime 	264.1
scalar RSUExampleScenario.node[44].veinsmobility 	totalTime 	226.6
scalar RSUExampleScenario.node[44].veinsmobility 	stopTime 	490.8
scalar RSUExampleScenario.node[44].veinsmobility 	minSpeed 	0.25504552497691
scalar RSUExampleScenario.node[44].veinsmobility 	maxSpeed 	18.999944138136
scalar RSUExampleScenario.node[44].veinsmobility 	totalDistance 	3409.8362138411
scalar RSUExampleScenario.node[44].veinsmobility 	totalCO2Emission 	703.95385899707
scalar RSUExampleScenario.node[45].veinsmobility 	startTime 	270.1
scalar RSUExampleScenario.node[45].veinsmobility 	totalTime 	226.9
scalar RSUExampleScenario.node[45].veinsmobility 	stopTime 	497.1
scalar RSUExampleScenario.node[45].veinsmobility 	minSpeed 	0.2562517327962
scalar RSUExampleScenario.node[45].veinsmobility 	maxSpeed 	18.999971009053
scalar RSUExampleScenario.node[45].veinsmobility 	totalDistance 	3409.3044776615
scalar RSUExampleScenario.node[45].veinsmobility 	totalCO2Emission 	705.44387097195
scalar RSUExampleScenario.node[46].veinsmobility 	startTime 	276.1
scalar RSUExampleScenario.node[46].veinsmobility 	totalTime 	227.1
scalar RSUExampleScenario.node[46].veinsmobility 	stopTime 	503.3
scalar RSUExampleScenario.node[46].veinsmobility 	minSpeed 	0.24935222663009
scalar RSUExampleScenario.node[46].veinsmobility 	maxSpeed 	18.999777936183
scalar RSUExampleScenario.node[46].veinsmobility 	totalDistance 	3409.2960392367
scalar RSUExampleScenario.node[46].veinsmobility 	totalCO2Emission 	708.89064575335
scalar RSUExampleScenario.node[47].veinsmobility 	startTime 	282.1
scalar RSUExampleScenario.node[47].veinsmobility 	totalTime 	226.9
scalar RSUExampleScenario.node[47].veinsmobility 	stopTime 	509.1
scalar RSUExampleScenario.node[47].veinsmobility 	minSpeed 	0.24846253894037
scalar RSUExampleScenario.node[47].veinsmobility 	maxSpeed 	18.999736181621
scalar RSUExampleScenario.node[47].veinsmobility 	totalDistance 	3409.6447872068
scalar RSUExampleScenario.node[47].veinsmobility 	totalCO2Emission 	711.78723662919
scalar RSUExampleScenario.node[48].veinsmobility 	startTime 	288.1
scalar RSUExampleScenario.node[48].veinsmobility 	totalTime 	227
scalar RSUExampleScenario.node[48].veinsmobility 	stopTime 	515.2
scalar RSUExampleScenario.node[48].veinsmobility 	minSpeed 	0.25713980826479
scalar RSUExampleScenario.node[48].veinsmobility 	maxSpeed 	18.999767716501
scalar RSUExampleScenario.node[48].veinsmobility 	totalDistance 	3409.5439466242
scalar RSUExampleScenario.node[48].veinsmobility 	totalCO2Emission 	703.13030587468
scalar RSUExampleScenario.node[49].veinsmobility 	startTime 	294.1
scalar RSUExampleScenario.node[49].veinsmobility 	totalTime 	226.8
scalar RSUExampleScenario.node[49].veinsmobility 	stopTime 	521
scalar RSUExampleScenario.node[49].veinsmobility 	minSpeed 	0.25201591577008
scalar RSUExampleScenario.node[49].veinsmobility 	maxSpeed 	18.998976723889
scalar RSUExampleScenario.node[49].veinsmobility 	totalDistance 	3409.3884377742
scalar RSUExampleScenario.node[49].veinsmobility 	totalCO2Emission 	709.18136445794
scalar RSUExampleScenario.node[50].veinsmobility 	startTime 	300.1
scalar RSUExampleScenario.node[50].veinsmobility 	totalTime 	226.9
scalar RSUExampleScenario.node[50].veinsmobility 	stopTime 	527.1
scalar RSUExampleScenario.node[50].veinsmobility 	minSpeed 	0.2579802571428
scalar RSUExampleScenario.node[50].veinsmobility 	maxSpeed 	18.999959484912
scalar RSUExampleScenario.node[50].veinsmobility 	totalDistance 	3409.2567703116
scalar RSUExampleScenario.node[50].veinsmobility 	totalCO2Emission 	706.55808151928
scalar RSUExampleScenario.node[51].veinsmobility 	startTime 	306.1
scalar RSUExampleScenario.node[51].veinsmobility 	totalTime 	226.8
scalar RSUExampleScenario.node[51].veinsmobility 	stopTime 	533
scalar RSUExampleScenario.node[51].veinsmobility 	minSpeed 	0.25076628581621
scalar RSUExampleScenario.node[51].veinsmobility 	maxSpeed 	18.999880428268
scalar RSUExampleScenario.node[51].veinsmobility 	totalDistance 	3409.4727324557
scalar RSUExampleScenario.node[51].veinsmobility 	totalCO2Emission 	710.75449117645
scalar RSUExampleScenario.node[52].veinsmobility 	startTime 	312.1
scalar RSUExampleScenario.node[52].veinsmobility 	totalTime 	227.1
scalar RSUExampleScenario.node[52].veinsmobility 	stopTime 	539.3
scalar RSUExampleScenario.node[52].veinsmobility 	minSpeed 	0.25067986241728
scalar RSUExampleScenario.node[52].veinsmobility 	maxSpeed 	18.999936960568
scalar RSUExampleScenario.node[52].veinsmobility 	totalDistance 	3409.4518780687
scalar RSUExampleScenario.node[52].veinsmobility 	totalCO2Emission 	708.71244888915
scalar RSUExampleScenario.node[53].veinsmobility 	startTime 	318.1
scalar RSUExampleScenario.node[53].veinsmobility 	totalTime 	226.9
scalar RSUExampleScenario.node[53].veinsmobility 	stopTime 	545.1
scalar RSUExampleScenario.node[53].veinsmobility 	minSpeed 	0.25676175531303
scalar RSUExampleScenario.node[53].veinsmobility 	maxSpeed 	18.999964200452
scalar RSUExampleScenario.node[53].veinsmobility 	totalDistance 	3409.720608388
scalar RSUExampleScenario.node[53].veinsmobility 	totalCO2Emission 	703.38272139145
scalar RSUExampleScenario.node[54].veinsmobility 	startTime 	324.1
scalar RSUExampleScenario.node[54].veinsmobility 	totalTime 	227
scalar RSUExampleScenario.node[54].veinsmobility 	stopTime 	551.2
scalar RSUExampleScenario.node[54].veinsmobility 	minSpeed 	0.24851989149372
scalar RSUExampleScenario.node[54].veinsmobility 	maxSpeed 	18.999466419246
scalar RSUExampleScenario.node[54].veinsmobility 	totalDistance 	3409.3476139192
scalar RSUExampleScenario.node[54].veinsmobility 	totalCO2Emission 	713.75203037941
scalar RSUExampleScenario.node[55].veinsmobility 	startTime 	330.1
scalar RSUExampleScenario.node[55].veinsmobility 	totalTime 	227.2
scalar RSUExampleScenario.node[55].veinsmobility 	stopTime 	557.4
scalar RSUExampleScenario.node[55].veinsmobility 	minSpeed 	0.25287347647408
scalar RSUExampleScenario.node[55].veinsmobility 	maxSpeed 	18.999693179291
scalar RSUExampleScenario.node[55].veinsmobility 	totalDistance 	3409.3003196209
scalar RSUExampleScenario.node[55].veinsmobility 	totalCO2Emission 	710.35526404269
scalar RSUExampleScenario.node[56].veinsmobility 	startTime 	336.1
scalar RSUExampleScenario.node[56].veinsmobility 	totalTime 	226.7
scalar RSUExampleScenario.node[56].veinsmobility 	stopTime 	562.9
scalar RSUExampleScenario.node[56].veinsmobility 	minSpeed 	0.24799821775546
scalar RSUExampleScenario.node[56].veinsmobility 	maxSpeed 	18.9999961056
scalar RSUExampleScenario.node[56].veinsmobility 	totalDistance 	3409.9568812449
scalar RSUExampleScenario.node[56].veinsmobility 	totalCO2Emission 	707.29152656621
scalar RSUExampleScenario.node[57].veinsmobility 	startTime 	342.1
scalar RSUExampleScenario.node[57].veinsmobility 	totalTime 	226.9
scalar RSUExampleScenario.node[57].veinsmobility 	stopTime 	569.1
scalar RSUExampleScenario.node[57].veinsmobility 	minSpeed 	0.25231349904137
scalar RSUExampleScenario.node[57].veinsmobility 	maxSpeed 	18.999965492319
scalar RSUExampleScenario.node[57].veinsmobility 	totalDistance 	3409.2920959599
scalar RSUExampleScenario.node[57].veinsmobility 	totalCO2Emission 	707.26111656574
scalar RSUExampleScenario.node[58].veinsmobility 	startTime 	348.1
scalar RSUExampleScenario.node[58].veinsmobility 	totalTime 	227
scalar RSUExampleScenario.node[58].veinsmobility 	stopTime 	575.2
scalar RSUExampleScenario.node[58].veinsmobility 	minSpeed 	0.25147892101109
scalar RSUExampleScenario.node[58].veinsmobility 	maxSpeed 	18.999993344827
scalar RSUExampleScenario.node[58].veinsmobility 	totalDistance 	3409.306587166
scalar RSUExampleScenario.node[58].veinsmobility 	totalCO2Emission 	708.77741925285
scalar RSUExampleScenario.node[59].veinsmobility 	startTime 	354.1
scalar RSUExampleScenario.node[59].veinsmobility 	totalTime 	226.8
scalar RSUExampleScenario.node[59].veinsmobility 	stopTime 	581
scalar RSUExampleScenario.node[59].veinsmobility 	minSpeed 	0.25029571102676
scalar RSUExampleScenario.node[59].veinsmobility 	maxSpeed 	18.999846054099
scalar RSUExampleScenario.node[59].veinsmobility 	totalDistance 	3409.5175114501
scalar RSUExampleScenario.node[59].veinsmobility 	totalCO2Emission 	709.03890380238
scalar RSUExampleScenario.node[60].veinsmobility 	startTime 	360.1
scalar RSUExampleScenario.node[60].veinsmobility 	totalTime 	226.9
scalar RSUExampleScenario.node[60].veinsmobility 	stopTime 	587.1
scalar RSUExampleScenario.node[60].veinsmobility 	minSpeed 	0.25828449442168
scalar RSUExampleScenario.node[60].veinsmobility 	maxSpeed 	18.999813113846
scalar RSUExampleScenario.node[60].veinsmobility 	totalDistance 	3409.4927742663
scalar RSUExampleScenario.node[60].veinsmobility 	totalCO2Emission 	710.70256997219
scalar RSUExampleScenario.node[61].veinsmobility 	startTime 	366.1
scalar RSUExampleScenario.node[61].veinsmobility 	totalTime 	226.8
scalar RSUExampleScenario.node[61].veinsmobility 	stopTime 	593
scalar RSUExampleScenario.node[61].veinsmobility 	minSpeed 	0.25040203988669
scalar RSUExampleScenario.node[61].veinsmobility 	maxSpeed 	18.999992883422
scalar RSUExampleScenario.node[61].veinsmobility 	totalDistance 	3409.4388692242
scalar RSUExampleScenario.node[61].veinsmobility 	totalCO2Emission 	703.10237605413
scalar RSUExampleScenario.node[62].veinsmobility 	startTime 	372.1
scalar RSUExampleScenario.node[62].veinsmobility 	totalTime 	227
scalar RSUExampleScenario.node[62].veinsmobility 	stopTime 	599.2
scalar RSUExampleScenario.node[62].veinsmobility 	minSpeed 	0.25872690340853
scalar RSUExampleScenario.node[62].veinsmobility 	maxSpeed 	18.999935734745
scalar RSUExampleScenario.node[62].veinsmobility 	totalDistance 	3409.3720559385
scalar RSUExampleScenario.node[62].veinsmobility 	totalCO2Emission 	706.13174718407
scalar RSUExampleScenario.node[63].veinsmobility 	startTime 	378.1
scalar RSUExampleScenario.node[63].veinsmobility 	totalTime 	227
scalar RSUExampleScenario.node[63].veinsmobility 	stopTime 	605.2
scalar RSUExampleScenario.node[63].veinsmobility 	minSpeed 	0.25848622142524
scalar RSUExampleScenario.node[63].veinsmobility 	maxSpeed 	18.99930412713
scalar RSUExampleScenario.node[63].veinsmobility 	totalDistance 	3409.2098986989
scalar RSUExampleScenario.node[63].veinsmobility 	totalCO2Emission 	708.57923732688
scalar RSUExampleScenario.node[64].veinsmobility 	startTime 	384.1
scalar RSUExampleScenario.node[64].veinsmobility 	totalTime 	227.1
scalar RSUExampleScenario.node[64].veinsmobility 	stopTime 	611.3
scalar RSUExampleScenario.node[64].veinsmobility 	minSpeed 	0.24999056455819
scalar RSUExampleScenario.node[64].veinsmobility 	maxSpeed 	18.999694140209
scalar RSUExampleScenario.node[64].veinsmobility 	totalDistance 	3409.8943883883
scalar RSUExampleScenario.node[64].veinsmobility 	totalCO2Emission 	704.02715006953
scalar RSUExampleScenario.node[65].veinsmobility 	startTime 	390.1
scalar RSUExampleScenario.node[65].veinsmobility 	totalTime 	227
scalar RSUExampleScenario.node[65].veinsmobility 	stopTime 	617.2
scalar RSUExampleScenario.node[65].veinsmobility 	minSpeed 	0.24900083820405
scalar RSUExampleScenario.node[65].veinsmobility 	maxSpeed 	18.999630607166
scalar RSUExampleScenario.node[65].veinsmobility 	totalDistance 	3409.395438654
scalar RSUExampleScenario.node[65].veinsmobility 	totalCO2Emission 	711.97069967947
scalar RSUExampleScenario.node[66].veinsmobility 	startTime 	396.1
scalar RSUExampleScenario.node[66].veinsmobility 	totalTime 	226.9
scalar RSUExampleScenario.node[66].veinsmobility 	stopTime 	623.1
scalar RSUExampleScenario.node[66].veinsmobility 	minSpeed 	0.25456204102864
scalar RSUExampleScenario.node[66].veinsmobility 	maxSpeed 	18.999237650011
scalar RSUExampleScenario.node[66].veinsmobility 	totalDistance 	3409.2706701818
scalar RSUExampleScenario.node[66].veinsmobility 	totalCO2Emission 	702.28086573527
scalar RSUExampleScenario.node[67].veinsmobility 	startTime 	402.1
scalar RSUExampleScenario.node[67].veinsmobility 	totalTime 	227.1
scalar RSUExampleScenario.node[67].veinsmobility 	stopTime 	629.3
scalar RSUExampleScenario.node[67].veinsmobility 	minSpeed 	0.25459419428091
scalar RSUExampleScenario.node[67].veinsmobility 	maxSpeed 	18.999822564237
scalar RSUExampleScenario.node[67].veinsmobility 	totalDistance 	3409.9717804972
scalar RSUExampleScenario.node[67].veinsmobility 	totalCO2Emission 	708.16059839241
scalar RSUExampleScenario.node[68].veinsmobility 	startTime 	408.1
scalar RSUExampleScenario.node[68].veinsmobility 	totalTime 	227.2
scalar RSUExampleScenario.node[68].veinsmobility 	stopTime 	635.4
scalar RSUExampleScenario.node[68].veinsmobility 	minSpeed 	0.24981316571287
scalar RSUExampleScenario.node[68].veinsmobility 	maxSpeed 	18.999713581547
scalar RSUExampleScenario.node[68].veinsmobility 	totalDistance 	3409.2593448906
scalar RSUExampleScenario.node[68].veinsmobility 	totalCO2Emission 	706.63785912775
scalar RSUExampleScenario.node[69].veinsmobility 	startTime 	414.1
scalar RSUExampleScenario.node[69].veinsmobility 	totalTime 	227
scalar RSUExampleScenario.node[69].veinsmobility 	stopTime 	641.2
scalar RSUExampleScenario.node[69].veinsmobility 	minSpeed 	0.25940643036296
scalar RSUExampleScenario.node[69].veinsmobility 	maxSpeed 	18.999998402002
scalar RSUExampleScenario.node[69].veinsmobility 	totalDistance 	3409.4046813401
scalar RSUExampleScenario.node[69].veinsmobility 	totalCO2Emission 	707.88574429723
scalar RSUExampleScenario.node[70].veinsmobility 	startTime 	420.1
scalar RSUExampleScenario.node[70].veinsmobility 	totalTime 	227.2
scalar RSUExampleScenario.node[70].veinsmobility 	stopTime 	647.4
scalar RSUExampleScenario.node[70].veinsmobility 	minSpeed 	0.25472431176621
scalar RSUExampleScenario.node[70].veinsmobility 	maxSpeed 	18.999987033166
scalar RSUExampleScenario.node[70].veinsmobility 	totalDistance 	3409.8730858348
scalar RSUExampleScenario.node[70].veinsmobility 	totalCO2Emission 	708.69413828199
scalar RSUExampleScenario.node[71].veinsmobility 	startTime 	426.1
scalar RSUExampleScenario.node[71].veinsmobility 	totalTime 	227.1
scalar RSUExampleScenario.node[71].veinsmobility 	stopTime 	653.3
scalar RSUExampleScenario.node[71].veinsmobility 	minSpeed 	0.25292021817109
scalar RSUExampleScenario.node[71].veinsmobility 	maxSpeed 	18.999833387129
scalar RSUExampleScenario.node[71].veinsmobility 	totalDistance 	3409.6662571183
scalar RSUExampleScenario.node[71].veinsmobility 	totalCO2Emission 	710.21565499746
scalar RSUExampleScenario.node[72].veinsmobility 	startTime 	432.1
scalar RSUExampleScenario.node[72].veinsmobility 	totalTime 	227
scalar RSUExampleScenario.node[72].veinsmobility 	stopTime 	659.2
scalar RSUExampleScenario.node[72].veinsmobility 	minSpeed 	0.25100160312327
scalar RSUExampleScenario.node[72].veinsmobility 	maxSpeed 	18.999648875226
scalar RSUExampleScenario.node[72].veinsmobility 	totalDistance 	3409.4892409625
scalar RSUExampleScenario.node[72].veinsmobility 	totalCO2Emission 	705.49746819062
scalar RSUExampleScenario.node[73].veinsmobility 	startTime 	438.1
scalar RSUExampleScenario.node[73].veinsmobility 	totalTime 	226.8
scalar RSUExampleScenario.node[73].veinsmobility 	stopTime 	665
scalar RSUExampleScenario.node[73].veinsmobility 	minSpeed 	0.25950303971628
scalar RSUExampleScenario.node[73].veinsmobility 	maxSpeed 	18.999998179986
scalar RSUExampleScenario.node[73].veinsmobility 	totalDistance 	3409.2709983862
scalar RSUExampleScenario.node[73].veinsmobility 	totalCO2Emission 	712.62338761025
scalar RSUExampleScenario.node[74].veinsmobility 	startTime 	444.1
scalar RSUExampleScenario.node[74].veinsmobility 	totalTime 	227
scalar RSUExampleScenario.node[74].veinsmobility 	stopTime 	671.2
scalar RSUExampleScenario.node[74].veinsmobility 	minSpeed 	0.25399013275281
scalar RSUExampleScenario.node[74].veinsmobility 	maxSpeed 	18.999991886425
scalar RSUExampleScenario.node[74].veinsmobility 	totalDistance 	3409.6969017215
scalar RSUExampleScenario.node[74].veinsmobility 	totalCO2Emission 	708.74259662069
scalar RSUExampleScenario.node[75].veinsmobility 	startTime 	450.1
scalar RSUExampleScenario.node[75].veinsmobility 	totalTime 	226.7
scalar RSUExampleScenario.node[75].veinsmobility 	stopTime 	676.9
scalar RSUExampleScenario.node[75].veinsmobility 	minSpeed 	0.25042417612229
scalar RSUExampleScenario.node[75].veinsmobility 	maxSpeed 	18.999831437629
scalar RSUExampleScenario.node[75].veinsmobility 	totalDistance 	3409.2540246775
scalar RSUExampleScenario.node[75].veinsmobility 	totalCO2Emission 	699.6279903319
scalar RSUExampleScenario.node[76].veinsmobility 	startTime 	456.1
scalar RSUExampleScenario.node[76].veinsmobility 	totalTime 	227.1
scalar RSUExampleScenario.node[76].veinsmobility 	stopTime 	683.3
scalar RSUExampleScenario.node[76].veinsmobility 	minSpeed 	0.25141321654944
scalar RSUExampleScenario.node[76].veinsmobility 	maxSpeed 	18.999906233721
scalar RSUExampleScenario.node[76].veinsmobility 	totalDistance 	3409.4628540353
scalar RSUExampleScenario.node[76].veinsmobility 	totalCO2Emission 	708.37434023236
scalar RSUExampleScenario.node[77].veinsmobility 	startTime 	462.1
scalar RSUExampleScenario.node[77].veinsmobility 	totalTime 	226.9
scalar RSUExampleScenario.node[77].veinsmobility 	stopTime 	689.1
scalar RSUExampleScenario.node[77].veinsmobility 	minSpeed 	0.25490303861327
scalar RSUExampleScenario.node[77].veinsmobility 	maxSpeed 	18.999767242444
scalar RSUExampleScenario.node[77].veinsmobility 	totalDistance 	3409.4558389734
scalar RSUExampleScenario.node[77].veinsmobility 	totalCO2Emission 	708.83341273325
scalar RSUExampleScenario.node[78].veinsmobility 	startTime 	468.1
scalar RSUExampleScenario.node[78].veinsmobility 	totalTime 	226.8
scalar RSUExampleScenario.node[78].veinsmobility 	stopTime 	695
scalar RSUExampleScenario.node[78].veinsmobility 	minSpeed 	0.25334480640735
scalar RSUExampleScenario.node[78].veinsmobility 	maxSpeed 	18.999949512852
scalar RSUExampleScenario.node[78].veinsmobility 	totalDistance 	3409.7886827325
scalar RSUExampleScenario.node[78].veinsmobility 	totalCO2Emission 	702.2773996487
scalar RSUExampleScenario.node[79].veinsmobility 	startTime 	474.1
scalar RSUExampleScenario.node[79].veinsmobility 	totalTime 	227.3
scalar RSUExampleScenario.node[79].veinsmobility 	stopTime 	701.5
scalar RSUExampleScenario.node[79].veinsmobility 	minSpeed 	0.24728750712913
scalar RSUExampleScenario.node[79].veinsmobility 	maxSpeed 	18.998856675043
scalar RSUExampleScenario.node[79].veinsmobility 	totalDistance 	3409.4871681598
scalar RSUExampleScenario.node[79].veinsmobility 	totalCO2Emission 	705.93100927412
scalar RSUExampleScenario.node[80].veinsmobility 	startTime 	480.1
scalar RSUExampleScenario.node[80].veinsmobility 	totalTime 	227
scalar RSUExampleScenario.node[80].veinsmobility 	stopTime 	707.2
scalar RSUExampleScenario.node[80].veinsmobility 	minSpeed 	0.24913714633952
scalar RSUExampleScenario.node[80].veinsmobility 	maxSpeed 	18.998323461893
scalar RSUExampleScenario.node[80].veinsmobility 	totalDistance 	3409.2331541029
scalar RSUExampleScenario.node[80].veinsmobility 	totalCO2Emission 	707.10241765165
scalar RSUExampleScenario.node[81].veinsmobility 	startTime 	486.1
scalar RSUExampleScenario.node[81].veinsmobility 	totalTime 	227
scalar RSUExampleScenario.node[81].veinsmobility 	stopTime 	713.2
scalar RSUExampleScenario.node[81].veinsmobility 	minSpeed 	0.25528154579969
scalar RSUExampleScenario.node[81].veinsmobility 	maxSpeed 	18.999389458811
scalar RSUExampleScenario.node[81].veinsmobility 	totalDistance 	3409.3703432155
scalar RSUExampleScenario.node[81].veinsmobility 	totalCO2Emission 	705.63645884438
scalar RSUExampleScenario.node[82].veinsmobility 	startTime 	492.1
scalar RSUExampleScenario.node[82].veinsmobility 	totalTime 	227
scalar RSUExampleScenario.node[82].veinsmobility 	stopTime 	719.2
scalar RSUExampleScenario.node[82].veinsmobility 	minSpeed 	0.25104187991493
scalar RSUExampleScenario.node[82].veinsmobility 	maxSpeed 	18.999966159395
scalar RSUExampleScenario.node[82].veinsmobility 	totalDistance 	3409.2783201943
scalar RSUExampleScenario.node[82].veinsmobility 	totalCO2Emission 	703.63301723129
scalar RSUExampleScenario.node[83].veinsmobility 	startTime 	498.1
scalar RSUExampleScenario.node[83].veinsmobility 	totalTime 	227.1
scalar RSUExampleScenario.node[83].veinsmobility 	stopTime 	725.3
scalar RSUExampleScenario.node[83].veinsmobility 	minSpeed 	0.24987507209345
scalar RSUExampleScenario.node[83].veinsmobility 	maxSpeed 	18.999979488447
scalar RSUExampleScenario.node[83].veinsmobility 	totalDistance 	3409.4788564724
scalar RSUExampleScenario.node[83].veinsmobility 	totalCO2Emission 	705.62195408633
scalar RSUExampleScenario.node[84].veinsmobility 	startTime 	504.1
scalar RSUExampleScenario.node[84].veinsmobility 	totalTime 	226.9
scalar RSUExampleScenario.node[84].veinsmobility 	stopTime 	731.1
scalar RSUExampleScenario.node[84].veinsmobility 	minSpeed 	0.25955027375836
scalar RSUExampleScenario.node[84].veinsmobility 	maxSpeed 	18.999791652211
scalar RSUExampleScenario.node[84].veinsmobility 	totalDistance 	3409.3454585066
scalar RSUExampleScenario.node[84].veinsmobility 	totalCO2Emission 	706.51967338036
scalar RSUExampleScenario.node[85].veinsmobility 	startTime 	510.1
scalar RSUExampleScenario.node[85].veinsmobility 	totalTime 	226.9
scalar RSUExampleScenario.node[85].veinsmobility 	stopTime 	737.1
scalar RSUExampleScenario.node[85].veinsmobility 	minSpeed 	0.25280583221
scalar RSUExampleScenario.node[85].veinsmobility 	maxSpeed 	18.999764931393
scalar RSUExampleScenario.node[85].veinsmobility 	totalDistance 	3409.6287603074
scalar RSUExampleScenario.node[85].veinsmobility 	totalCO2Emission 	708.66814676737
scalar RSUExampleScenario.node[86].veinsmobility 	startTime 	516.1
scalar RSUExampleScenario.node[86].veinsmobility 	totalTime 	226.8
scalar RSUExampleScenario.node[86].veinsmobility 	stopTime 	743
scalar RSUExampleScenario.node[86].veinsmobility 	minSpeed 	0.25780245817592
scalar RSUExampleScenario.node[86].veinsmobility 	maxSpeed 	18.999869773211
scalar RSUExampleScenario.node[86].veinsmobility 	totalDistance 	3409.4836832311
scalar RSUExampleScenario.node[86].veinsmobility 	totalCO2Emission 	710.51628146963
scalar RSUExampleScenario.node[87].veinsmobility 	startTime 	522.1
scalar RSUExampleScenario.node[87].veinsmobility 	totalTime 	226.9
scalar RSUExampleScenario.node[87].veinsmobility 	stopTime 	749.1
scalar RSUExampleScenario.node[87].veinsmobility 	minSpeed 	0.25097696477268
scalar RSUExampleScenario.node[87].veinsmobility 	maxSpeed 	18.999797131564
scalar RSUExampleScenario.node[87].veinsmobility 	totalDistance 	3409.3756934556
scalar RSUExampleScenario.node[87].veinsmobility 	totalCO2Emission 	706.1884601354
scalar RSUExampleScenario.node[88].veinsmobility 	startTime 	528.1
scalar RSUExampleScenario.node[88].veinsmobility 	totalTime 	227
scalar RSUExampleScenario.node[88].veinsmobility 	stopTime 	755.2
scalar RSUExampleScenario.node[88].veinsmobility 	minSpeed 	0.24836335271015
scalar RSUExampleScenario.node[88].veinsmobility 	maxSpeed 	18.999927056187
scalar RSUExampleScenario.node[88].veinsmobility 	totalDistance 	3409.4751872538
scalar RSUExampleScenario.node[88].veinsmobility 	totalCO2Emission 	709.73260540384
scalar RSUExampleScenario.node[89].veinsmobility 	startTime 	534.1
scalar RSUExampleScenario.node[89].veinsmobility 	totalTime 	226.7
scalar RSUExampleScenario.node[89].veinsmobility 	stopTime 	760.9
scalar RSUExampleScenario.node[89].veinsmobility 	minSpeed 	0.24905245131813
scalar RSUExampleScenario.node[89].veinsmobility 	maxSpeed 	18.999727060394
scalar RSUExampleScenario.node[89].veinsmobility 	totalDistance 	3409.3937538672
scalar RSUExampleScenario.node[89].veinsmobility 	totalCO2Emission 	708.14225933164
scalar RSUExampleScenario.node[90].veinsmobility 	startTime 	540.1
scalar RSUExampleScenario.node[90].veinsmobility 	totalTime 	226.8
scalar RSUExampleScenario.node[90].veinsmobility 	stopTime 	767
scalar RSUExampleScenario.node[90].veinsmobility 	minSpeed 	0.25095310419728
scalar RSUExampleScenario.node[90].veinsmobility 	maxSpeed 	18.999874559245
scalar RSUExampleScenario.node[90].veinsmobility 	totalDistance 	3409.3158877909
scalar RSUExampleScenario.node[90].veinsmobility 	totalCO2Emission 	708.38378810402
scalar RSUExampleScenario.node[91].veinsmobility 	startTime 	546.1
scalar RSUExampleScenario.node[91].veinsmobility 	totalTime 	226.8
scalar RSUExampleScenario.node[91].veinsmobility 	stopTime 	773
scalar RSUExampleScenario.node[91].veinsmobility 	minSpeed 	0.25304839787586
scalar RSUExampleScenario.node[91].veinsmobility 	maxSpeed 	18.99908360813
scalar RSUExampleScenario.node[91].veinsmobility 	totalDistance 	3409.2820322362
scalar RSUExampleScenario.node[91].veinsmobility 	totalCO2Emission 	701.57401544537
scalar RSUExampleScenario.node[92].veinsmobility 	startTime 	552.1
scalar RSUExampleScenario.node[92].veinsmobility 	totalTime 	226.7
scalar RSUExampleScenario.node[92].veinsmobility 	stopTime 	778.9
scalar RSUExampleScenario.node[92].veinsmobility 	minSpeed 	0.25401650862792
scalar RSUExampleScenario.node[92].veinsmobility 	maxSpeed 	18.999858659927
scalar RSUExampleScenario.node[92].veinsmobility 	totalDistance 	3409.6939236633
scalar RSUExampleScenario.node[92].veinsmobility 	totalCO2Emission 	704.9379765347
scalar RSUExampleScenario.node[93].veinsmobility 	startTime 	558.1
scalar RSUExampleScenario.node[93].veinsmobility 	totalTime 	227.2
scalar RSUExampleScenario.node[93].veinsmobility 	stopTime 	785.4
scalar RSUExampleScenario.node[93].veinsmobility 	minSpeed 	0.2570503428427
scalar RSUExampleScenario.node[93].veinsmobility 	maxSpeed 	18.999816883632
scalar RSUExampleScenario.node[93].veinsmobility 	totalDistance 	3409.4784307325
scalar RSUExampleScenario.node[93].veinsmobility 	totalCO2Emission 	709.52959807478
scalar RSUExampleScenario.node[94].veinsmobility 	startTime 	564.1
scalar RSUExampleScenario.node[94].veinsmobility 	totalTime 	227.1
scalar RSUExampleScenario.node[94].veinsmobility 	stopTime 	791.3
scalar RSUExampleScenario.node[94].veinsmobility 	minSpeed 	0.25337450518948
scalar RSUExampleScenario.node[94].veinsmobility 	maxSpeed 	18.99986661505
scalar RSUExampleScenario.node[94].veinsmobility 	totalDistance 	3409.4838413352
scalar RSUExampleScenario.node[94].veinsmobility 	totalCO2Emission 	706.71000605627
scalar RSUExampleScenario.node[95].veinsmobility 	startTime 	570.1
scalar RSUExampleScenario.node[95].veinsmobility 	totalTime 	227
scalar RSUExampleScenario.node[95].veinsmobility 	stopTime 	797.2
scalar RSUExampleScenario.node[95].veinsmobility 	minSpeed 	0.25397163024917
scalar RSUExampleScenario.node[95].veinsmobility 	maxSpeed 	18.999870872332
scalar RSUExampleScenario.node[95].veinsmobility 	totalDistance 	3409.511287009
scalar RSUExampleScenario.node[95].veinsmobility 	totalCO2Emission 	707.06811193463
scalar RSUExampleScenario.node[96].veinsmobility 	startTime 	576.1
scalar RSUExampleScenario.node[96].veinsmobility 	totalTime 	226.7
scalar RSUExampleScenario.node[96].veinsmobility 	stopTime 	802.9
scalar RSUExampleScenario.node[96].veinsmobility 	minSpeed 	0.25454796804767
scalar RSUExampleScenario.node[96].veinsmobility 	maxSpeed 	18.999996720373
scalar RSUExampleScenario.node[96].veinsmobility 	totalDistance 	3409.5461621971
scalar RSUExampleScenario.node[96].veinsmobility 	totalCO2Emission 	706.75702305885
scalar RSUExampleScenario.node[97].veinsmobility 	startTime 	582.1
scalar RSUExampleScenario.node[97].veinsmobility 	totalTime 	226.9
scalar RSUExampleScenario.node[97].veinsmobility 	stopTime 	809.1
scalar RSUExampleScenario.node[97].veinsmobility 	minSpeed 	0.25354278831393
scalar RSUExampleScenario.node[97].veinsmobility 	maxSpeed 	18.999832819817
scalar RSUExampleScenario.node[97].veinsmobility 	totalDistance 	3409.5045203197
scalar RSUExampleScenario.node[97].veinsmobility 	totalCO2Emission 	706.98070605039
scalar RSUExampleScenario.node[98].veinsmobility 	startTime 	588.1
scalar RSUExampleScenario.node[98].veinsmobility 	totalTime 	227.1
scalar RSUExampleScenario.node[98].veinsmobility 	stopTime 	815.3
scalar RSUExampleScenario.node[98].veinsmobility 	minSpeed 	0.24774102614284
scalar RSUExampleScenario.node[98].veinsmobility 	maxSpeed 	18.999491488158
scalar RSUExampleScenario.node[98].veinsmobility 	totalDistance 	3409.4566616213
scalar RSUExampleScenario.node[98].veinsmobility 	totalCO2Emission 	704.69084783602
scalar RSUExampleScenario.node[99].veinsmobility 	startTime 	594.1
scalar RSUExampleScenario.node[99].veinsmobility 	totalTime 	226.9
scalar RSUExampleScenario.node[99].veinsmobility 	stopTime 	821.1
scalar RSUExampleScenario.node[99].veinsmobility 	minSpeed 	0.25514036465506
scalar RSUExampleScenario.node[99].veinsmobility 	maxSpeed 	18.999957662385
scalar RSUExampleScenario.node[99].veinsmobility 	totalDistance 	3409.2398727346
scalar RSUExampleScenario.node[99].veinsmobility 	totalCO2Emission 	705.45275103874
scalar RSUExampleScenario.node[100].veinsmobility 	startTime 	600.1
scalar RSUExampleScenario.node[100].veinsmobility 	totalTime 	226.8
scalar RSUExampleScenario.node[100].veinsmobility 	stopTime 	827
scalar RSUExampleScenario.node[100].veinsmobility 	minSpeed 	0.25153665133915
scalar RSUExampleScenario.node[100].veinsmobility 	maxSpeed 	18.999324700551
scalar RSUExampleScenario.node[100].veinsmobility 	totalDistance 	3409.4242740949
scalar RSUExampleScenario.node[100].veinsmobility 	totalCO2Emission 	711.83114459572
scalar RSUExampleScenario.node[101].veinsmobility 	startTime 	606.1
scalar RSUExampleScenario.node[101].veinsmobility 	totalTime 	227
scalar RSUExampleScenario.node[101].veinsmobility 	stopTime 	833.2
scalar RSUExampleScenario.node[101].veinsmobility 	minSpeed 	0.25294850319624
scalar RSUExampleScenario.node[101].veinsmobility 	maxSpeed 	18.999836869007
scalar RSUExampleScenario.node[101].veinsmobility 	totalDistance 	3409.5565702054
scalar RSUExampleScenario.node[101].veinsmobility 	totalCO2Emission 	707.22870579568
scalar RSUExampleScenario.node[102].veinsmobility 	startTime 	612.1
scalar RSUExampleScenario.node[102].veinsmobility 	totalTime 	227
scalar RSUExampleScenario.node[102].veinsmobility 	stopTime 	839.2
scalar RSUExampleScenario.node[102].veinsmobility 	minSpeed 	0.25219757936522
scalar RSUExampleScenario.node[102].veinsmobility 	maxSpeed 	18.999511935574
scalar RSUExampleScenario.node[102].veinsmobility 	totalDistance 	3409.067791111
scalar RSUExampleScenario.node[102].veinsmobility 	totalCO2Emission 	705.69257258307
scalar RSUExampleScenario.node[103].veinsmobility 	startTime 	618.1
scalar RSUExampleScenario.node[103].veinsmobility 	totalTime 	226.9
scalar RSUExampleScenario.node[103].veinsmobility 	stopTime 	845.1
scalar RSUExampleScenario.node[103].veinsmobility 	minSpeed 	0.24778630092018
scalar RSUExampleScenario.node[103].veinsmobility 	maxSpeed 	18.999164776995
scalar RSUExampleScenario.node[103].veinsmobility 	totalDistance 	3409.3947190739
scalar RSUExampleScenario.node[103].veinsmobility 	totalCO2Emission 	710.42988422874
scalar RSUExampleScenario.node[104].veinsmobility 	startTime 	624.1
scalar RSUExampleScenario.node[104].veinsmobility 	totalTime 	226.8
scalar RSUExampleScenario.node[104].veinsmobility 	stopTime 	851
scalar RSUExampleScenario.node[104].veinsmobility 	minSpeed 	0.25467348481156
scalar RSUExampleScenario.node[104].veinsmobility 	maxSpeed 	18.999368498807
scalar RSUExampleScenario.node[104].veinsmobility 	totalDistance 	3409.6784288014
scalar RSUExampleScenario.node[104].veinsmobility 	totalCO2Emission 	707.83272578118
scalar RSUExampleScenario.node[105].veinsmobility 	startTime 	630.1
scalar RSUExampleScenario.node[105].veinsmobility 	totalTime 	227.1
scalar RSUExampleScenario.node[105].veinsmobility 	stopTime 	857.3
scalar RSUExampleScenario.node[105].veinsmobility 	minSpeed 	0.24928016817104
scalar RSUExampleScenario.node[105].veinsmobility 	maxSpeed 	18.999868190407
scalar RSUExampleScenario.node[105].veinsmobility 	totalDistance 	3409.4376437509
scalar RSUExampleScenario.node[105].veinsmobility 	totalCO2Emission 	708.67144567364
scalar RSUExampleScenario.node[106].veinsmobility 	startTime 	636.1
scalar RSUExampleScenario.node[106].veinsmobility 	totalTime 	227.1
scalar RSUExampleScenario.node[106].veinsmobility 	stopTime 	863.3
scalar RSUExampleScenario.node[106].veinsmobility 	minSpeed 	0.25929171520728
scalar RSUExampleScenario.node[106].veinsmobility 	maxSpeed 	18.999872473024
scalar RSUExampleScenario.node[106].veinsmobility 	totalDistance 	3409.5948902524
scalar RSUExampleScenario.node[106].veinsmobility 	totalCO2Emission 	707.47858460217
scalar RSUExampleScenario.node[107].veinsmobility 	startTime 	642.1
scalar RSUExampleScenario.node[107].veinsmobility 	totalTime 	227.1
scalar RSUExampleScenario.node[107].veinsmobility 	stopTime 	869.3
scalar RSUExampleScenario.node[107].veinsmobility 	minSpeed 	0.24795311455824
scalar RSUExampleScenario.node[107].veinsmobility 	maxSpeed 	18.999788519172
scalar RSUExampleScenario.node[107].veinsmobility 	totalDistance 	3409.4130352518
scalar RSUExampleScenario.node[107].veinsmobility 	totalCO2Emission 	712.2828410678
scalar RSUExampleScenario.node[108].veinsmobility 	startTime 	648.1
scalar RSUExampleScenario.node[108].veinsmobility 	totalTime 	227.1
scalar RSUExampleScenario.node[108].veinsmobility 	stopTime 	875.3
scalar RSUExampleScenario.node[108].veinsmobility 	minSpeed 	0.24779513746127
scalar RSUExampleScenario.node[108].veinsmobility 	maxSpeed 	18.999977152031
scalar RSUExampleScenario.node[108].veinsmobility 	totalDistance 	3409.323340095
scalar RSUExampleScenario.node[108].veinsmobility 	totalCO2Emission 	708.2993701715
scalar RSUExampleScenario.node[109].veinsmobility 	startTime 	654.1
scalar RSUExampleScenario.node[109].veinsmobility 	totalTime 	226.8
scalar RSUExampleScenario.node[109].veinsmobility 	stopTime 	881
scalar RSUExampleScenario.node[109].veinsmobility 	minSpeed 	0.25634153210442
scalar RSUExampleScenario.node[109].veinsmobility 	maxSpeed 	18.999622171691
scalar RSUExampleScenario.node[109].veinsmobility 	totalDistance 	3409.3922853726
scalar RSUExampleScenario.node[109].veinsmobility 	totalCO2Emission 	705.66760990178
scalar RSUExampleScenario.node[110].veinsmobility 	startTime 	660.1
scalar RSUExampleScenario.node[110].veinsmobility 	totalTime 	227.1
scalar RSUExampleScenario.node[110].veinsmobility 	stopTime 	887.3
scalar RSUExampleScenario.node[110].veinsmobility 	minSpeed 	0.25041413147096
scalar RSUExampleScenario.node[110].veinsmobility 	maxSpeed 	18.999944513822
scalar RSUExampleScenario.node[110].veinsmobility 	totalDistance 	3409.1637130011
scalar RSUExampleScenario.node[110].veinsmobility 	totalCO2Emission 	709.02590767014
scalar RSUExampleScenario.node[111].veinsmobility 	startTime 	666.1
scalar RSUExampleScenario.node[111].veinsmobility 	totalTime 	226.6
scalar RSUExampleScenario.node[111].veinsmobility 	stopTime 	892.8
scalar RSUExampleScenario.node[111].veinsmobility 	minSpeed 	0.25985367263225
scalar RSUExampleScenario.node[111].veinsmobility 	maxSpeed 	18.999342038415
scalar RSUExampleScenario.node[111].veinsmobility 	totalDistance 	3409.3105569955
scalar RSUExampleScenario.node[111].veinsmobility 	totalCO2Emission 	705.35475889968
scalar RSUExampleScenario.node[112].veinsmobility 	startTime 	672.1
scalar RSUExampleScenario.node[112].veinsmobility 	totalTime 	226.7
scalar RSUExampleScenario.node[112].veinsmobility 	stopTime 	898.9
scalar RSUExampleScenario.node[112].veinsmobility 	minSpeed 	0.25975397511525
scalar RSUExampleScenario.node[112].veinsmobility 	maxSpeed 	18.999950229265
scalar RSUExampleScenario.node[112].veinsmobility 	totalDistance 	3409.4855667212
scalar RSUExampleScenario.node[112].veinsmobility 	totalCO2Emission 	703.9392520547
scalar RSUExampleScenario.node[113].veinsmobility 	startTime 	678.1
scalar RSUExampleScenario.node[113].veinsmobility 	totalTime 	226.8
scalar RSUExampleScenario.node[113].veinsmobility 	stopTime 	905
scalar RSUExampleScenario.node[113].veinsmobility 	minSpeed 	0.25359879157203
scalar RSUExampleScenario.node[113].veinsmobility 	maxSpeed 	18.999834619733
scalar RSUExampleScenario.node[113].veinsmobility 	totalDistance 	3409.5082670275
scalar RSUExampleScenario.node[113].veinsmobility 	totalCO2Emission 	704.3740520663
scalar RSUExampleScenario.node[114].veinsmobility 	startTime 	684.1
scalar RSUExampleScenario.node[114].veinsmobility 	totalTime 	227
scalar RSUExampleScenario.node[114].veinsmobility 	stopTime 	911.2
scalar RSUExampleScenario.node[114].veinsmobility 	minSpeed 	0.25020515555167
scalar RSUExampleScenario.node[114].veinsmobility 	maxSpeed 	18.999988718033
scalar RSUExampleScenario.node[114].veinsmobility 	totalDistance 	3409.41455026
scalar RSUExampleScenario.node[114].veinsmobility 	totalCO2Emission 	705.63987090997
scalar RSUExampleScenario.node[115].veinsmobility 	startTime 	690.1
scalar RSUExampleScenario.node[115].veinsmobility 	totalTime 	226.9
scalar RSUExampleScenario.node[115].veinsmobility 	stopTime 	917.1
scalar RSUExampleScenario.node[115].veinsmobility 	minSpeed 	0.24907607709267
scalar RSUExampleScenario.node[115].veinsmobility 	maxSpeed 	18.999963302491
scalar RSUExampleScenario.node[115].veinsmobility 	totalDistance 	3409.1819368025
scalar RSUExampleScenario.node[115].veinsmobility 	totalCO2Emission 	707.63397296254
scalar RSUExampleScenario.node[116].veinsmobility 	startTime 	696.1
scalar RSUExampleScenario.node[116].veinsmobility 	totalTime 	227
scalar RSUExampleScenario.node[116].veinsmobility 	stopTime 	923.2
scalar RSUExampleScenario.node[116].veinsmobility 	minSpeed 	0.25446410700004
scalar RSUExampleScenario.node[116].veinsmobility 	maxSpeed 	18.999640775847
scalar RSUExampleScenario.node[116].veinsmobility 	totalDistance 	3409.4064910706
scalar RSUExampleScenario.node[116].veinsmobility 	totalCO2Emission 	707.30746911524
scalar RSUExampleScenario.node[117].veinsmobility 	startTime 	702.1
scalar RSUExampleScenario.node[117].veinsmobility 	totalTime 	226.9
scalar RSUExampleScenario.node[117].veinsmobility 	stopTime 	929.1
scalar RSUExampleScenario.node[117].veinsmobility 	minSpeed 	0.24829354091338
scalar RSUExampleScenario.node[117].veinsmobility 	maxSpeed 	18.999897121938
scalar RSUExampleScenario.node[117].veinsmobility 	totalDistance 	3409.3341847278
scalar RSUExampleScenario.node[117].veinsmobility 	totalCO2Emission 	707.18175591234
scalar RSUExampleScenario.node[118].veinsmobility 	startTime 	708.1
scalar RSUExampleScenario.node[118].veinsmobility 	totalTime 	227
scalar RSUExampleScenario.node[118].veinsmobility 	stopTime 	935.2
scalar RSUExampleScenario.node[118].veinsmobility 	minSpeed 	0.2492955391854
scalar RSUExampleScenario.node[118].veinsmobility 	maxSpeed 	18.999964589849
scalar RSUExampleScenario.node[118].veinsmobility 	totalDistance 	3409.430637538
scalar RSUExampleScenario.node[118].veinsmobility 	totalCO2Emission 	699.73287463896
scalar RSUExampleScenario.node[119].veinsmobility 	startTime 	714.1
scalar RSUExampleScenario.node[119].veinsmobility 	totalTime 	227
scalar RSUExampleScenario.node[119].veinsmobility 	stopTime 	941.2
scalar RSUExampleScenario.node[119].veinsmobility 	minSpeed 	0.2574523413654
scalar RSUExampleScenario.node[119].veinsmobility 	maxSpeed 	18.999775725137
scalar RSUExampleScenario.node[119].veinsmobility 	totalDistance 	3409.3748206924
scalar RSUExampleScenario.node[119].veinsmobility 	totalCO2Emission 	710.70631376559
scalar RSUExampleScenario.node[120].veinsmobility 	startTime 	720.1
scalar RSUExampleScenario.node[120].veinsmobility 	totalTime 	226.9
scalar RSUExampleScenario.node[120].veinsmobility 	stopTime 	947.1
scalar RSUExampleScenario.node[120].veinsmobility 	minSpeed 	0.25412724835332
scalar RSUExampleScenario.node[120].veinsmobility 	maxSpeed 	18.999949021118
scalar RSUExampleScenario.node[120].veinsmobility 	totalDistance 	3409.5684221263
scalar RSUExampleScenario.node[120].veinsmobility 	totalCO2Emission 	703.43378835574
scalar RSUExampleScenario.node[121].veinsmobility 	startTime 	726.1
scalar RSUExampleScenario.node[121].veinsmobility 	totalTime 	226.7
scalar RSUExampleScenario.node[121].veinsmobility 	stopTime 	952.9
scalar RSUExampleScenario.node[121].veinsmobility 	minSpeed 	0.24816583635542
scalar RSUExampleScenario.node[121].veinsmobility 	maxSpeed 	18.999830207326
scalar RSUExampleScenario.node[121].veinsmobility 	totalDistance 	3409.2174942778
scalar RSUExampleScenario.node[121].veinsmobility 	totalCO2Emission 	707.92121255035
scalar RSUExampleScenario.node[122].veinsmobility 	startTime 	732.1
scalar RSUExampleScenario.node[122].veinsmobility 	totalTime 	226.6
scalar RSUExampleScenario.node[122].veinsmobility 	stopTime 	958.8
scalar RSUExampleScenario.node[122].veinsmobility 	minSpeed 	0.25507024360122
scalar RSUExampleScenario.node[122].veinsmobility 	maxSpeed 	18.999676373114
scalar RSUExampleScenario.node[122].veinsmobility 	totalDistance 	3409.5455942775
scalar RSUExampleScenario.node[122].veinsmobility 	totalCO2Emission 	705.39912572167
scalar RSUExampleScenario.node[123].veinsmobility 	startTime 	738.1
scalar RSUExampleScenario.node[123].veinsmobility 	totalTime 	227
scalar RSUExampleScenario.node[123].veinsmobility 	stopTime 	965.2
scalar RSUExampleScenario.node[123].veinsmobility 	minSpeed 	0.25389408133528
scalar RSUExampleScenario.node[123].veinsmobility 	maxSpeed 	18.999946403422
scalar RSUExampleScenario.node[123].veinsmobility 	totalDistance 	3409.6628392785
scalar RSUExampleScenario.node[123].veinsmobility 	totalCO2Emission 	708.33569941268
scalar RSUExampleScenario.node[124].veinsmobility 	startTime 	744.1
scalar RSUExampleScenario.node[124].veinsmobility 	totalTime 	226.7
scalar RSUExampleScenario.node[124].veinsmobility 	stopTime 	970.9
scalar RSUExampleScenario.node[124].veinsmobility 	minSpeed 	0.248790204586
scalar RSUExampleScenario.node[124].veinsmobility 	maxSpeed 	18.999924451082
scalar RSUExampleScenario.node[124].veinsmobility 	totalDistance 	3409.6917934783
scalar RSUExampleScenario.node[124].veinsmobility 	totalCO2Emission 	709.61141929108
scalar RSUExampleScenario.node[125].veinsmobility 	startTime 	750.1
scalar RSUExampleScenario.node[125].veinsmobility 	totalTime 	227
scalar RSUExampleScenario.node[125].veinsmobility 	stopTime 	977.2
scalar RSUExampleScenario.node[125].veinsmobility 	minSpeed 	0.25806364841922
scalar RSUExampleScenario.node[125].veinsmobility 	maxSpeed 	18.999602679231
scalar RSUExampleScenario.node[125].veinsmobility 	totalDistance 	3409.7251093902
scalar RSUExampleScenario.node[125].veinsmobility 	totalCO2Emission 	706.93521247642
scalar RSUExampleScenario.node[126].veinsmobility 	startTime 	756.1
scalar RSUExampleScenario.node[126].veinsmobility 	totalTime 	227
scalar RSUExampleScenario.node[126].veinsmobility 	stopTime 	983.2
scalar RSUExampleScenario.node[126].veinsmobility 	minSpeed 	0.25756075492664
scalar RSUExampleScenario.node[126].veinsmobility 	maxSpeed 	18.999999562961
scalar RSUExampleScenario.node[126].veinsmobility 	totalDistance 	3409.4621380097
scalar RSUExampleScenario.node[126].veinsmobility 	totalCO2Emission 	709.34235108498
scalar RSUExampleScenario.node[127].veinsmobility 	startTime 	762.1
scalar RSUExampleScenario.node[127].veinsmobility 	totalTime 	226.9
scalar RSUExampleScenario.node[127].veinsmobility 	stopTime 	989.1
scalar RSUExampleScenario.node[127].veinsmobility 	minSpeed 	0.24847663891432
scalar RSUExampleScenario.node[127].veinsmobility 	maxSpeed 	18.999983560368
scalar RSUExampleScenario.node[127].veinsmobility 	totalDistance 	3409.6660840301
scalar RSUExampleScenario.node[127].veinsmobility 	totalCO2Emission 	707.24759223195
scalar RSUExampleScenario.node[128].veinsmobility 	startTime 	768.1
scalar RSUExampleScenario.node[128].veinsmobility 	totalTime 	226.8
scalar RSUExampleScenario.node[128].veinsmobility 	stopTime 	995
scalar RSUExampleScenario.node[128].veinsmobility 	minSpeed 	0.24793069146993
scalar RSUExampleScenario.node[128].veinsmobility 	maxSpeed 	18.999911687074
scalar RSUExampleScenario.node[128].veinsmobility 	totalDistance 	3409.860827961
scalar RSUExampleScenario.node[128].veinsmobility 	totalCO2Emission 	710.1243313051
scalar RSUExampleScenario.node[129].veinsmobility 	startTime 	774.1
scalar RSUExampleScenario.node[129].veinsmobility 	totalTime 	226.9
scalar RSUExampleScenario.node[129].veinsmobility 	stopTime 	1001.1
scalar RSUExampleScenario.node[129].veinsmobility 	minSpeed 	0.2583493358281
scalar RSUExampleScenario.node[129].veinsmobility 	maxSpeed 	18.999779225509
scalar RSUExampleScenario.node[129].veinsmobility 	totalDistance 	3409.8703438264
scalar RSUExampleScenario.node[129].veinsmobility 	totalCO2Emission 	705.94365714836
scalar RSUExampleScenario.node[130].veinsmobility 	startTime 	780.1
scalar RSUExampleScenario.node[130].veinsmobility 	totalTime 	227
scalar RSUExampleScenario.node[130].veinsmobility 	stopTime 	1007.2
scalar RSUExampleScenario.node[130].veinsmobility 	minSpeed 	0.24780810784618
scalar RSUExampleScenario.node[130].veinsmobility 	maxSpeed 	18.999537163605
scalar RSUExampleScenario.node[130].veinsmobility 	totalDistance 	3409.3111679348
scalar RSUExampleScenario.node[130].veinsmobility 	totalCO2Emission 	705.78647449581
scalar RSUExampleScenario.node[131].veinsmobility 	startTime 	786.1
scalar RSUExampleScenario.node[131].veinsmobility 	totalTime 	227
scalar RSUExampleScenario.node[131].veinsmobility 	stopTime 	1013.2
scalar RSUExampleScenario.node[131].veinsmobility 	minSpeed 	0.24806434063567
scalar RSUExampleScenario.node[131].veinsmobility 	maxSpeed 	18.999934859576
scalar RSUExampleScenario.node[131].veinsmobility 	totalDistance 	3409.311774488
scalar RSUExampleScenario.node[131].veinsmobility 	totalCO2Emission 	705.90637490565
scalar RSUExampleScenario.node[132].veinsmobility 	startTime 	792.1
scalar RSUExampleScenario.node[132].veinsmobility 	totalTime 	226.9
scalar RSUExampleScenario.node[132].veinsmobility 	stopTime 	1019.1
scalar RSUExampleScenario.node[132].veinsmobility 	minSpeed 	0.247657872007
scalar RSUExampleScenario.node[132].veinsmobility 	maxSpeed 	18.99984528396
scalar RSUExampleScenario.node[132].veinsmobility 	totalDistance 	3409.6727313674
scalar RSUExampleScenario.node[132].veinsmobility 	totalCO2Emission 	706.77560116748
scalar RSUExampleScenario.node[133].veinsmobility 	startTime 	798.1
scalar RSUExampleScenario.node[133].veinsmobility 	totalTime 	227
scalar RSUExampleScenario.node[133].veinsmobility 	stopTime 	1025.2
scalar RSUExampleScenario.node[133].veinsmobility 	minSpeed 	0.25203774020309
scalar RSUExampleScenario.node[133].veinsmobility 	maxSpeed 	18.999747097557
scalar RSUExampleScenario.node[133].veinsmobility 	totalDistance 	3409.2758367058
scalar RSUExampleScenario.node[133].veinsmobility 	totalCO2Emission 	703.67365212302
scalar RSUExampleScenario.node[134].veinsmobility 	startTime 	804.1
scalar RSUExampleScenario.node[134].veinsmobility 	totalTime 	227
scalar RSUExampleScenario.node[134].veinsmobility 	stopTime 	1031.2
scalar RSUExampleScenario.node[134].veinsmobility 	minSpeed 	0.25867618777952
scalar RSUExampleScenario.node[134].veinsmobility 	maxSpeed 	18.999808928783
scalar RSUExampleScenario.node[134].veinsmobility 	totalDistance 	3409.5033226485
scalar RSUExampleScenario.node[134].veinsmobility 	totalCO2Emission 	706.42674961615
scalar RSUExampleScenario.node[135].veinsmobility 	startTime 	810.1
scalar RSUExampleScenario.node[135].veinsmobility 	totalTime 	227
scalar RSUExampleScenario.node[135].veinsmobility 	stopTime 	1037.2
scalar RSUExampleScenario.node[135].veinsmobility 	minSpeed 	0.25505840180651
scalar RSUExampleScenario.node[135].veinsmobility 	maxSpeed 	18.999670972943
scalar RSUExampleScenario.node[135].veinsmobility 	totalDistance 	3409.3690941037
scalar RSUExampleScenario.node[135].veinsmobility 	totalCO2Emission 	706.17159728121
scalar RSUExampleScenario.node[136].veinsmobility 	startTime 	816.1
scalar RSUExampleScenario.node[136].veinsmobility 	totalTime 	226.9
scalar RSUExampleScenario.node[136].veinsmobility 	stopTime 	1043.1
scalar RSUExampleScenario.node[136].veinsmobility 	minSpeed 	0.25041681259987
scalar RSUExampleScenario.node[136].veinsmobility 	maxSpeed 	18.999209817965
scalar RSUExampleScenario.node[136].veinsmobility 	totalDistance 	3409.3902891947
scalar RSUExampleScenario.node[136].veinsmobility 	totalCO2Emission 	705.34953943037
scalar RSUExampleScenario.node[137].veinsmobility 	startTime 	822.1
scalar RSUExampleScenario.node[137].veinsmobility 	totalTime 	227
scalar RSUExampleScenario.node[137].veinsmobility 	stopTime 	1049.2
scalar RSUExampleScenario.node[137].veinsmobility 	minSpeed 	0.25387600884889
scalar RSUExampleScenario.node[137].veinsmobility 	maxSpeed 	18.999849019998
scalar RSUExampleScenario.node[137].veinsmobility 	totalDistance 	3409.6024332486
scalar RSUExampleScenario.node[137].veinsmobility 	totalCO2Emission 	705.2999728498
scalar RSUExampleScenario.node[138].veinsmobility 	startTime 	828.1
scalar RSUExampleScenario.node[138].veinsmobility 	totalTime 	227
scalar RSUExampleScenario.node[138].veinsmobility 	stopTime 	1055.2
scalar RSUExampleScenario.node[138].veinsmobility 	minSpeed 	0.25818840494216
scalar RSUExampleScenario.node[138].veinsmobility 	maxSpeed 	18.999839958884
scalar RSUExampleScenario.node[138].veinsmobility 	totalDistance 	3409.3048337644
scalar RSUExampleScenario.node[138].veinsmobility 	totalCO2Emission 	708.33628022138
scalar RSUExampleScenario.node[139].veinsmobility 	startTime 	834.1
scalar RSUExampleScenario.node[139].veinsmobility 	totalTime 	226.8
scalar RSUExampleScenario.node[139].veinsmobility 	stopTime 	1061
scalar RSUExampleScenario.node[139].veinsmobility 	minSpeed 	0.25826303802314
scalar RSUExampleScenario.node[139].veinsmobility 	maxSpeed 	18.999973029471
scalar RSUExampleScenario.node[139].veinsmobility 	totalDistance 	3409.8343401478
scalar RSUExampleScenario.node[139].veinsmobility 	totalCO2Emission 	706.93600781005
scalar RSUExampleScenario.node[140].veinsmobility 	startTime 	840.1
scalar RSUExampleScenario.node[140].veinsmobility 	totalTime 	226.9
scalar RSUExampleScenario.node[140].veinsmobility 	stopTime 	1067.1
scalar RSUExampleScenario.node[140].veinsmobility 	minSpeed 	0.25109217105061
scalar RSUExampleScenario.node[140].veinsmobility 	maxSpeed 	18.999953569942
scalar RSUExampleScenario.node[140].veinsmobility 	totalDistance 	3409.1738676211
scalar RSUExampleScenario.node[140].veinsmobility 	totalCO2Emission 	704.88982025699
scalar RSUExampleScenario.node[141].veinsmobility 	startTime 	846.1
scalar RSUExampleScenario.node[141].veinsmobility 	totalTime 	226.8
scalar RSUExampleScenario.node[141].veinsmobility 	stopTime 	1073
scalar RSUExampleScenario.node[141].veinsmobility 	minSpeed 	0.25767159303208
scalar RSUExampleScenario.node[141].veinsmobility 	maxSpeed 	18.999704900386
scalar RSUExampleScenario.node[141].veinsmobility 	totalDistance 	3409.3105992613
scalar RSUExampleScenario.node[141].veinsmobility 	totalCO2Emission 	709.39424726028
scalar RSUExampleScenario.node[142].veinsmobility 	startTime 	852.1
scalar RSUExampleScenario.node[142].veinsmobility 	totalTime 	227
scalar RSUExampleScenario.node[142].veinsmobility 	stopTime 	1079.2
scalar RSUExampleScenario.node[142].veinsmobility 	minSpeed 	0.25733897044114
scalar RSUExampleScenario.node[142].veinsmobility 	maxSpeed 	18.999902416202
scalar RSUExampleScenario.node[142].veinsmobility 	totalDistance 	3409.2215347653
scalar RSUExampleScenario.node[142].veinsmobility 	totalCO2Emission 	705.30158778805
scalar RSUExampleScenario.node[143].veinsmobility 	startTime 	858.1
scalar RSUExampleScenario.node[143].veinsmobility 	totalTime 	226.9
scalar RSUExampleScenario.node[143].veinsmobility 	stopTime 	1085.1
scalar RSUExampleScenario.node[143].veinsmobility 	minSpeed 	0.24708207697095
scalar RSUExampleScenario.node[143].veinsmobility 	maxSpeed 	18.99976076555
scalar RSUExampleScenario.node[143].veinsmobility 	totalDistance 	3409.4571004559
scalar RSUExampleScenario.node[143].veinsmobility 	totalCO2Emission 	708.3977055712
scalar RSUExampleScenario.node[144].veinsmobility 	startTime 	864.1
scalar RSUExampleScenario.node[144].veinsmobility 	totalTime 	227.3
scalar RSUExampleScenario.node[144].veinsmobility 	stopTime 	1091.5
scalar RSUExampleScenario.node[144].veinsmobility 	minSpeed 	0.25105173002789
scalar RSUExampleScenario.node[144].veinsmobility 	maxSpeed 	18.999123558812
scalar RSUExampleScenario.node[144].veinsmobility 	totalDistance 	3409.8238449292
scalar RSUExampleScenario.node[144].veinsmobility 	totalCO2Emission 	707.18011501712
scalar RSUExampleScenario.node[145].veinsmobility 	startTime 	870.1
scalar RSUExampleScenario.node[145].veinsmobility 	totalTime 	226.8
scalar RSUExampleScenario.node[145].veinsmobility 	stopTime 	1097
scalar RSUExampleScenario.node[145].veinsmobility 	minSpeed 	0.24844784510252
scalar RSUExampleScenario.node[145].veinsmobility 	maxSpeed 	18.999770087271
scalar RSUExampleScenario.node[145].veinsmobility 	totalDistance 	3409.3040736732
scalar RSUExampleScenario.node[145].veinsmobility 	totalCO2Emission 	705.71179277875
scalar RSUExampleScenario.node[146].veinsmobility 	startTime 	876.1
scalar RSUExampleScenario.node[146].veinsmobility 	totalTime 	227
scalar RSUExampleScenario.node[146].veinsmobility 	stopTime 	1103.2
scalar RSUExampleScenario.node[146].veinsmobility 	minSpeed 	0.24770085824328
scalar RSUExampleScenario.node[146].veinsmobility 	maxSpeed 	18.999961512231
scalar RSUExampleScenario.node[146].veinsmobility 	totalDistance 	3409.6674863329
scalar RSUExampleScenario.node[146].veinsmobility 	totalCO2Emission 	706.86028197058
scalar RSUExampleScenario.node[147].veinsmobility 	startTime 	882.1
scalar RSUExampleScenario.node[147].veinsmobility 	totalTime 	226.6
scalar RSUExampleScenario.node[147].veinsmobility 	stopTime 	1108.8
scalar RSUExampleScenario.node[147].veinsmobility 	minSpeed 	0.25790725545771
scalar RSUExampleScenario.node[147].veinsmobility 	maxSpeed 	18.999885303259
scalar RSUExampleScenario.node[147].veinsmobility 	totalDistance 	3409.8381125853
scalar RSUExampleScenario.node[147].veinsmobility 	totalCO2Emission 	708.92920152666
scalar RSUExampleScenario.node[148].veinsmobility 	startTime 	888.1
scalar RSUExampleScenario.node[148].veinsmobility 	totalTime 	226.9
scalar RSUExampleScenario.node[148].veinsmobility 	stopTime 	1115.1
scalar RSUExampleScenario.node[148].veinsmobility 	minSpeed 	0.25514829176129
scalar RSUExampleScenario.node[148].veinsmobility 	maxSpeed 	18.999944647546
scalar RSUExampleScenario.node[148].veinsmobility 	totalDistance 	3409.6477727792
scalar RSUExampleScenario.node[148].veinsmobility 	totalCO2Emission 	708.27918480324
scalar RSUExampleScenario.node[149].veinsmobility 	startTime 	894.1
scalar RSUExampleScenario.node[149].veinsmobility 	totalTime 	227
scalar RSUExampleScenario.node[149].veinsmobility 	stopTime 	1121.2
scalar RSUExampleScenario.node[149].veinsmobility 	minSpeed 	0.25474234882998
scalar RSUExampleScenario.node[149].veinsmobility 	maxSpeed 	18.999922300028
scalar RSUExampleScenario.node[149].veinsmobility 	totalDistance 	3409.4457181596
scalar RSUExampleScenario.node[149].veinsmobility 	totalCO2Emission 	705.82851647907
scalar RSUExampleScenario.node[150].veinsmobility 	startTime 	900.1
scalar RSUExampleScenario.node[150].veinsmobility 	totalTime 	226.9
scalar RSUExampleScenario.node[150].veinsmobility 	stopTime 	1127.1
scalar RSUExampleScenario.node[150].veinsmobility 	minSpeed 	0.2505595116748
scalar RSUExampleScenario.node[150].veinsmobility 	maxSpeed 	18.999282627327
scalar RSUExampleScenario.node[150].veinsmobility 	totalDistance 	3409.4188475446
scalar RSUExampleScenario.node[150].veinsmobility 	totalCO2Emission 	702.97106509316
scalar RSUExampleScenario.node[151].veinsmobility 	startTime 	906.1
scalar RSUExampleScenario.node[151].veinsmobility 	totalTime 	226.8
scalar RSUExampleScenario.node[151].veinsmobility 	stopTime 	1133
scalar RSUExampleScenario.node[151].veinsmobility 	minSpeed 	0.25642128416128
scalar RSUExampleScenario.node[151].veinsmobility 	maxSpeed 	18.999200108177
scalar RSUExampleScenario.node[151].veinsmobility 	totalDistance 	3409.4288132177
scalar RSUExampleScenario.node[151].veinsmobility 	totalCO2Emission 	706.43977909499
scalar RSUExampleScenario.node[152].veinsmobility 	startTime 	912.1
scalar RSUExampleScenario.node[152].veinsmobility 	totalTime 	227.3
scalar RSUExampleScenario.node[152].veinsmobility 	stopTime 	1139.5
scalar RSUExampleScenario.node[152].veinsmobility 	minSpeed 	0.25945110582211
scalar RSUExampleScenario.node[152].veinsmobility 	maxSpeed 	18.99997659401
scalar RSUExampleScenario.node[152].veinsmobility 	totalDistance 	3409.7805690818
scalar RSUExampleScenario.node[152].veinsmobility 	totalCO2Emission 	706.71152635256
[...]
scalar RSUExampleScenario.node[262].veinsmobility 	startTime 	1572.1
scalar RSUExampleScenario.node[262].veinsmobility 	totalTime 	226.9
scalar RSUExampleScenario.node[262].veinsmobility 	stopTime 	1799.1
scalar RSUExampleScenario.node[262].veinsmobility 	minSpeed 	0.24899339697463
scalar RSUExampleScenario.node[262].veinsmobility 	maxSpeed 	18.999633106303
scalar RSUExampleScenario.node[262].veinsmobility 	totalDistance 	3409.3036103831
scalar RSUExampleScenario.node[262].veinsmobility 	totalCO2Emission 	710.40372283857
scalar RSUExampleScenario.node[263].veinsmobility 	startTime 	1578.1
scalar RSUExampleScenario.node[263].veinsmobility 	totalTime 	226.8
scalar RSUExampleScenario.node[263].veinsmobility 	stopTime 	1805
scalar RSUExampleScenario.node[263].veinsmobility 	minSpeed 	0.25100003751484
scalar RSUExampleScenario.node[263].veinsmobility 	maxSpeed 	18.999724714777
scalar RSUExampleScenario.node[263].veinsmobility 	totalDistance 	3409.4641960261
scalar RSUExampleScenario.node[263].veinsmobility 	totalCO2Emission 	706.6552916396
scalar RSUExampleScenario.node[264].veinsmobility 	startTime 	1584.1
scalar RSUExampleScenario.node[264].veinsmobility 	totalTime 	226.5
scalar RSUExampleScenario.node[264].veinsmobility 	stopTime 	1810.7
scalar RSUExampleScenario.node[264].veinsmobility 	minSpeed 	0.25817575677508
scalar RSUExampleScenario.node[264].veinsmobility 	maxSpeed 	18.999958710838
scalar RSUExampleScenario.node[264].veinsmobility 	totalDistance 	3409.1380007394
scalar RSUExampleScenario.node[264].veinsmobility 	totalCO2Emission 	705.75338052406
scalar RSUExampleScenario.node[265].veinsmobility 	startTime 	1590.1
scalar RSUExampleScenario.node[265].veinsmobility 	totalTime 	226.9
scalar RSUExampleScenario.node[265].veinsmobility 	stopTime 	1817.1
scalar RSUExampleScenario.node[265].veinsmobility 	minSpeed 	0.2569117357994
scalar RSUExampleScenario.node[265].veinsmobility 	maxSpeed 	18.999789750867
scalar RSUExampleScenario.node[265].veinsmobility 	totalDistance 	3409.9285505691
scalar RSUExampleScenario.node[265].veinsmobility 	totalCO2Emission 	707.61627147469
scalar RSUExampleScenario.node[266].veinsmobility 	startTime 	1596.1
scalar RSUExampleScenario.node[266].veinsmobility 	totalTime 	226.9
scalar RSUExampleScenario.node[266].veinsmobility 	stopTime 	1823.1
scalar RSUExampleScenario.node[266].veinsmobility 	minSpeed 	0.25680705095408
scalar RSUExampleScenario.node[266].veinsmobility 	maxSpeed 	18.998954033798
scalar RSUExampleScenario.node[266].veinsmobility 	totalDistance 	3409.2768996722
scalar RSUExampleScenario.node[266].veinsmobility 	totalCO2Emission 	701.81825424486
scalar RSUExampleScenario.node[267].veinsmobility 	startTime 	1602.1
scalar RSUExampleScenario.node[267].veinsmobility 	totalTime 	226.9
scalar RSUExampleScenario.node[267].veinsmobility 	stopTime 	1829.1
scalar RSUExampleScenario.node[267].veinsmobility 	minSpeed 	0.25779423064482
scalar RSUExampleScenario.node[267].veinsmobility 	maxSpeed 	18.999975960986
scalar RSUExampleScenario.node[267].veinsmobility 	totalDistance 	3409.1256786048
scalar RSUExampleScenario.node[267].veinsmobility 	totalCO2Emission 	702.63040548678
scalar RSUExampleScenario.node[268].veinsmobility 	startTime 	1608.1
scalar RSUExampleScenario.node[268].veinsmobility 	totalTime 	227
scalar RSUExampleScenario.node[268].veinsmobility 	stopTime 	1835.2
scalar RSUExampleScenario.node[268].veinsmobility 	minSpeed 	0.24741369812144
scalar RSUExampleScenario.node[268].veinsmobility 	maxSpeed 	18.999486416546
scalar RSUExampleScenario.node[268].veinsmobility 	totalDistance 	3409.7685389472
scalar RSUExampleScenario.node[268].veinsmobility 	totalCO2Emission 	704.35287674886
scalar RSUExampleScenario.node[269].veinsmobility 	startTime 	1614.1
scalar RSUExampleScenario.node[269].veinsmobility 	totalTime 	226.9
scalar RSUExampleScenario.node[269].veinsmobility 	stopTime 	1841.1
scalar RSUExampleScenario.node[269].veinsmobility 	minSpeed 	0.25956656248588
scalar RSUExampleScenario.node[269].veinsmobility 	maxSpeed 	18.99997870829
scalar RSUExampleScenario.node[269].veinsmobility 	totalDistance 	3409.2204194623
scalar RSUExampleScenario.node[269].veinsmobility 	totalCO2Emission 	707.47326821221
scalar RSUExampleScenario.node[270].veinsmobility 	startTime 	1620.1
scalar RSUExampleScenario.node[270].veinsmobility 	totalTime 	227.1
scalar RSUExampleScenario.node[270].veinsmobility 	stopTime 	1847.3
scalar RSUExampleScenario.node[270].veinsmobility 	minSpeed 	0.25143210825697
scalar RSUExampleScenario.node[270].veinsmobility 	maxSpeed 	18.999988287168
scalar RSUExampleScenario.node[270].veinsmobility 	totalDistance 	3409.4854333616
scalar RSUExampleScenario.node[270].veinsmobility 	totalCO2Emission 	704.8172893812
scalar RSUExampleScenario.node[271].veinsmobility 	startTime 	1626.1
scalar RSUExampleScenario.node[271].veinsmobility 	totalTime 	226.9
scalar RSUExampleScenario.node[271].veinsmobility 	stopTime 	1853.1
scalar RSUExampleScenario.node[271].veinsmobility 	minSpeed 	0.25182030827482
scalar RSUExampleScenario.node[271].veinsmobility 	maxSpeed 	18.999825959003
scalar RSUExampleScenario.node[271].veinsmobility 	totalDistance 	3409.3595350078
scalar RSUExampleScenario.node[271].veinsmobility 	totalCO2Emission 	708.19811273986
scalar RSUExampleScenario.node[272].veinsmobility 	startTime 	1632.1
scalar RSUExampleScenario.node[272].veinsmobility 	totalTime 	226.8
scalar RSUExampleScenario.node[272].veinsmobility 	stopTime 	1859
scalar RSUExampleScenario.node[272].veinsmobility 	minSpeed 	0.24998977804161
scalar RSUExampleScenario.node[272].veinsmobility 	maxSpeed 	18.999805505413
scalar RSUExampleScenario.node[272].veinsmobility 	totalDistance 	3409.2607162372
scalar RSUExampleScenario.node[272].veinsmobility 	totalCO2Emission 	706.75657438304
scalar RSUExampleScenario.node[273].veinsmobility 	startTime 	1638.1
scalar RSUExampleScenario.node[273].veinsmobility 	totalTime 	226.8
scalar RSUExampleScenario.node[273].veinsmobility 	stopTime 	1865
scalar RSUExampleScenario.node[273].veinsmobility 	minSpeed 	0.25467574627791
scalar RSUExampleScenario.node[273].veinsmobility 	maxSpeed 	18.999867898927
scalar RSUExampleScenario.node[273].veinsmobility 	totalDistance 	3409.8862144224
scalar RSUExampleScenario.node[273].veinsmobility 	totalCO2Emission 	703.87072247038
scalar RSUExampleScenario.node[274].veinsmobility 	startTime 	1644.1
scalar RSUExampleScenario.node[274].veinsmobility 	totalTime 	226.9
scalar RSUExampleScenario.node[274].veinsmobility 	stopTime 	1871.1
scalar RSUExampleScenario.node[274].veinsmobility 	minSpeed 	0.25879587139748
scalar RSUExampleScenario.node[274].veinsmobility 	maxSpeed 	18.999893235045
scalar RSUExampleScenario.node[274].veinsmobility 	totalDistance 	3409.5979745646
scalar RSUExampleScenario.node[274].veinsmobility 	totalCO2Emission 	706.33712269685
scalar RSUExampleScenario.node[275].veinsmobility 	startTime 	1650.1
scalar RSUExampleScenario.node[275].veinsmobility 	totalTime 	226.8
scalar RSUExampleScenario.node[275].veinsmobility 	stopTime 	1877
scalar RSUExampleScenario.node[275].veinsmobility 	minSpeed 	0.25128940146975
scalar RSUExampleScenario.node[275].veinsmobility 	maxSpeed 	18.999885060873
scalar RSUExampleScenario.node[275].veinsmobility 	totalDistance 	3409.584409541
scalar RSUExampleScenario.node[275].veinsmobility 	totalCO2Emission 	710.4499163808
scalar RSUExampleScenario.node[276].veinsmobility 	startTime 	1656.1
scalar RSUExampleScenario.node[276].veinsmobility 	totalTime 	226.8
scalar RSUExampleScenario.node[276].veinsmobility 	stopTime 	1883
scalar RSUExampleScenario.node[276].veinsmobility 	minSpeed 	0.25929661553935
scalar RSUExampleScenario.node[276].veinsmobility 	maxSpeed 	18.999676001968
scalar RSUExampleScenario.node[276].veinsmobility 	totalDistance 	3409.2752997791
scalar RSUExampleScenario.node[276].veinsmobility 	totalCO2Emission 	705.80243267665
scalar RSUExampleScenario.node[277].veinsmobility 	startTime 	1662.1
scalar RSUExampleScenario.node[277].veinsmobility 	totalTime 	226.7
scalar RSUExampleScenario.node[277].veinsmobility 	stopTime 	1888.9
scalar RSUExampleScenario.node[277].veinsmobility 	minSpeed 	0.25505032556388
scalar RSUExampleScenario.node[277].veinsmobility 	maxSpeed 	18.99997445703
scalar RSUExampleScenario.node[277].veinsmobility 	totalDistance 	3409.3551364071
scalar RSUExampleScenario.node[277].veinsmobility 	totalCO2Emission 	708.92233610003
scalar RSUExampleScenario.node[278].veinsmobility 	startTime 	1668.1
scalar RSUExampleScenario.node[278].veinsmobility 	totalTime 	226.8
scalar RSUExampleScenario.node[278].veinsmobility 	stopTime 	1895
scalar RSUExampleScenario.node[278].veinsmobility 	minSpeed 	0.25336494962941
scalar RSUExampleScenario.node[278].veinsmobility 	maxSpeed 	18.99998220966
scalar RSUExampleScenario.node[278].veinsmobility 	totalDistance 	3409.2680144202
scalar RSUExampleScenario.node[278].veinsmobility 	totalCO2Emission 	704.68749210795
scalar RSUExampleScenario.node[279].veinsmobility 	startTime 	1674.1
scalar RSUExampleScenario.node[279].veinsmobility 	totalTime 	226.9
scalar RSUExampleScenario.node[279].veinsmobility 	stopTime 	1901.1
scalar RSUExampleScenario.node[279].veinsmobility 	minSpeed 	0.25185821647267
scalar RSUExampleScenario.node[279].veinsmobility 	maxSpeed 	18.99993929314
scalar RSUExampleScenario.node[279].veinsmobility 	totalDistance 	3409.5366867886
scalar RSUExampleScenario.node[279].veinsmobility 	totalCO2Emission 	703.52020253168
scalar RSUExampleScenario.node[280].veinsmobility 	startTime 	1680.1
scalar RSUExampleScenario.node[280].veinsmobility 	totalTime 	226.9
scalar RSUExampleScenario.node[280].veinsmobility 	stopTime 	1907.1
scalar RSUExampleScenario.node[280].veinsmobility 	minSpeed 	0.25831060129311
scalar RSUExampleScenario.node[280].veinsmobility 	maxSpeed 	18.999981530991
scalar RSUExampleScenario.node[280].veinsmobility 	totalDistance 	3409.7684185073
scalar RSUExampleScenario.node[280].veinsmobility 	totalCO2Emission 	708.31470462629
scalar RSUExampleScenario.node[281].veinsmobility 	startTime 	1686.1
scalar RSUExampleScenario.node[281].veinsmobility 	totalTime 	226.9
scalar RSUExampleScenario.node[281].veinsmobility 	stopTime 	1913.1
scalar RSUExampleScenario.node[281].veinsmobility 	minSpeed 	0.25601395335817
scalar RSUExampleScenario.node[281].veinsmobility 	maxSpeed 	18.999520808512
scalar RSUExampleScenario.node[281].veinsmobility 	totalDistance 	3409.3455055513
scalar RSUExampleScenario.node[281].veinsmobility 	totalCO2Emission 	706.14954509711
scalar RSUExampleScenario.node[282].veinsmobility 	startTime 	1692.1
scalar RSUExampleScenario.node[282].veinsmobility 	totalTime 	226.7
scalar RSUExampleScenario.node[282].veinsmobility 	stopTime 	1918.9
scalar RSUExampleScenario.node[282].veinsmobility 	minSpeed 	0.25994499819749
scalar RSUExampleScenario.node[282].veinsmobility 	maxSpeed 	18.999941966014
scalar RSUExampleScenario.node[282].veinsmobility 	totalDistance 	3409.3572004609
scalar RSUExampleScenario.node[282].veinsmobility 	totalCO2Emission 	700.90087489398
scalar RSUExampleScenario.node[283].veinsmobility 	startTime 	1698.1
scalar RSUExampleScenario.node[283].veinsmobility 	totalTime 	226.9
scalar RSUExampleScenario.node[283].veinsmobility 	stopTime 	1925.1
scalar RSUExampleScenario.node[283].veinsmobility 	minSpeed 	0.24972131660231
scalar RSUExampleScenario.node[283].veinsmobility 	maxSpeed 	18.999790674313
scalar RSUExampleScenario.node[283].veinsmobility 	totalDistance 	3409.6228334825
scalar RSUExampleScenario.node[283].veinsmobility 	totalCO2Emission 	710.18205716475
scalar RSUExampleScenario.node[284].veinsmobility 	startTime 	1704.1
scalar RSUExampleScenario.node[284].veinsmobility 	totalTime 	226.7
scalar RSUExampleScenario.node[284].veinsmobility 	stopTime 	1930.9
scalar RSUExampleScenario.node[284].veinsmobility 	minSpeed 	0.25765665604244
scalar RSUExampleScenario.node[284].veinsmobility 	maxSpeed 	18.999717652046
scalar RSUExampleScenario.node[284].veinsmobility 	totalDistance 	3409.2484687848
scalar RSUExampleScenario.node[284].veinsmobility 	totalCO2Emission 	709.25475853781
scalar RSUExampleScenario.node[285].veinsmobility 	startTime 	1710.1
scalar RSUExampleScenario.node[285].veinsmobility 	totalTime 	227.1
scalar RSUExampleScenario.node[285].veinsmobility 	stopTime 	1937.3
scalar RSUExampleScenario.node[285].veinsmobility 	minSpeed 	0.25375888214307
scalar RSUExampleScenario.node[285].veinsmobility 	maxSpeed 	18.999942747685
scalar RSUExampleScenario.node[285].veinsmobility 	totalDistance 	3409.5029147405
scalar RSUExampleScenario.node[285].veinsmobility 	totalCO2Emission 	710.71665151764
scalar RSUExampleScenario.node[286].veinsmobility 	startTime 	1716.1
scalar RSUExampleScenario.node[286].veinsmobility 	totalTime 	227
scalar RSUExampleScenario.node[286].veinsmobility 	stopTime 	1943.2
scalar RSUExampleScenario.node[286].veinsmobility 	minSpeed 	0.2470229720769
scalar RSUExampleScenario.node[286].veinsmobility 	maxSpeed 	18.999929029145
scalar RSUExampleScenario.node[286].veinsmobility 	totalDistance 	3409.2843315118
scalar RSUExampleScenario.node[286].veinsmobility 	totalCO2Emission 	707.0315436059
scalar RSUExampleScenario.node[287].veinsmobility 	startTime 	1722.1
scalar RSUExampleScenario.node[287].veinsmobility 	totalTime 	226.8
scalar RSUExampleScenario.node[287].veinsmobility 	stopTime 	1949
scalar RSUExampleScenario.node[287].veinsmobility 	minSpeed 	0.25128849010076
scalar RSUExampleScenario.node[287].veinsmobility 	maxSpeed 	18.999990988192
scalar RSUExampleScenario.node[287].veinsmobility 	totalDistance 	3409.4846170253
scalar RSUExampleScenario.node[287].veinsmobility 	totalCO2Emission 	704.46350479689
scalar RSUExampleScenario.node[288].veinsmobility 	startTime 	1728.1
scalar RSUExampleScenario.node[288].veinsmobility 	totalTime 	227
scalar RSUExampleScenario.node[288].veinsmobility 	stopTime 	1955.2
scalar RSUExampleScenario.node[288].veinsmobility 	minSpeed 	0.25600292095658
scalar RSUExampleScenario.node[288].veinsmobility 	maxSpeed 	18.999756818302
scalar RSUExampleScenario.node[288].veinsmobility 	totalDistance 	3409.2892670549
scalar RSUExampleScenario.node[288].veinsmobility 	totalCO2Emission 	704.90572593405
scalar RSUExampleScenario.node[289].veinsmobility 	startTime 	1734.1
scalar RSUExampleScenario.node[289].veinsmobility 	totalTime 	227
scalar RSUExampleScenario.node[289].veinsmobility 	stopTime 	1961.2
scalar RSUExampleScenario.node[289].veinsmobility 	minSpeed 	0.24709902457497
scalar RSUExampleScenario.node[289].veinsmobility 	maxSpeed 	18.999987813958
scalar RSUExampleScenario.node[289].veinsmobility 	totalDistance 	3409.4036613837
scalar RSUExampleScenario.node[289].veinsmobility 	totalCO2Emission 	707.98165154257
scalar RSUExampleScenario.node[290].veinsmobility 	startTime 	1740.1
scalar RSUExampleScenario.node[290].veinsmobility 	totalTime 	226.8
scalar RSUExampleScenario.node[290].veinsmobility 	stopTime 	1967
scalar RSUExampleScenario.node[290].veinsmobility 	minSpeed 	0.25831785055087
scalar RSUExampleScenario.node[290].veinsmobility 	maxSpeed 	18.999831425673
scalar RSUExampleScenario.node[290].veinsmobility 	totalDistance 	3409.3520326518
scalar RSUExampleScenario.node[290].veinsmobility 	totalCO2Emission 	705.57076432713
scalar RSUExampleScenario.node[291].veinsmobility 	startTime 	1746.1
scalar RSUExampleScenario.node[291].veinsmobility 	totalTime 	226.7
scalar RSUExampleScenario.node[291].veinsmobility 	stopTime 	1972.9
scalar RSUExampleScenario.node[291].veinsmobility 	minSpeed 	0.25969101452199
scalar RSUExampleScenario.node[291].veinsmobility 	maxSpeed 	18.999916089431
scalar RSUExampleScenario.node[291].veinsmobility 	totalDistance 	3409.4654420398
scalar RSUExampleScenario.node[291].veinsmobility 	totalCO2Emission 	706.76300161201
scalar RSUExampleScenario.node[292].veinsmobility 	startTime 	1752.1
scalar RSUExampleScenario.node[292].veinsmobility 	totalTime 	227.1
scalar RSUExampleScenario.node[292].veinsmobility 	stopTime 	1979.3
scalar RSUExampleScenario.node[292].veinsmobility 	minSpeed 	0.24747002791357
scalar RSUExampleScenario.node[292].veinsmobility 	maxSpeed 	18.999904934468
scalar RSUExampleScenario.node[292].veinsmobility 	totalDistance 	3409.8349683519
scalar RSUExampleScenario.node[292].veinsmobility 	totalCO2Emission 	704.55686053925
scalar RSUExampleScenario.node[293].veinsmobility 	startTime 	1758.1
scalar RSUExampleScenario.node[293].veinsmobility 	totalTime 	227
scalar RSUExampleScenario.node[293].veinsmobility 	stopTime 	1985.2
scalar RSUExampleScenario.node[293].veinsmobility 	minSpeed 	0.25016399094556
scalar RSUExampleScenario.node[293].veinsmobility 	maxSpeed 	18.999837912344
scalar RSUExampleScenario.node[293].veinsmobility 	totalDistance 	3409.6539611499
scalar RSUExampleScenario.node[293].veinsmobility 	totalCO2Emission 	710.25833074382
scalar RSUExampleScenario.node[294].veinsmobility 	startTime 	1764.1
scalar RSUExampleScenario.node[294].veinsmobility 	totalTime 	227.3
scalar RSUExampleScenario.node[294].veinsmobility 	stopTime 	1991.5
scalar RSUExampleScenario.node[294].veinsmobility 	minSpeed 	0.25248876351863
scalar RSUExampleScenario.node[294].veinsmobility 	maxSpeed 	18.999703762431
scalar RSUExampleScenario.node[294].veinsmobility 	totalDistance 	3409.7364099182
scalar RSUExampleScenario.node[294].veinsmobility 	totalCO2Emission 	706.69640262556
scalar RSUExampleScenario.node[295].veinsmobility 	startTime 	1770.1
scalar RSUExampleScenario.node[295].veinsmobility 	totalTime 	226.8
scalar RSUExampleScenario.node[295].veinsmobility 	stopTime 	1997
scalar RSUExampleScenario.node[295].veinsmobility 	minSpeed 	0.25336326360283
scalar RSUExampleScenario.node[295].veinsmobility 	maxSpeed 	18.99947757669
scalar RSUExampleScenario.node[295].veinsmobility 	totalDistance 	3409.331139495
scalar RSUExampleScenario.node[295].veinsmobility 	totalCO2Emission 	712.12274974367
scalar RSUExampleScenario.node[296].veinsmobility 	startTime 	1776.1
scalar RSUExampleScenario.node[296].veinsmobility 	totalTime 	223.8
scalar RSUExampleScenario.node[296].veinsmobility 	stopTime 	2000
scalar RSUExampleScenario.node[296].veinsmobility 	minSpeed 	0.25564281914383
scalar RSUExampleScenario.node[296].veinsmobility 	maxSpeed 	18.999796116557
scalar RSUExampleScenario.node[296].veinsmobility 	totalDistance 	3389.3373443588
scalar RSUExampleScenario.node[296].veinsmobility 	totalCO2Emission 	692.46110213708
scalar RSUExampleScenario.node[297].veinsmobility 	startTime 	1782.1
scalar RSUExampleScenario.node[297].veinsmobility 	totalTime 	217.8
scalar RSUExampleScenario.node[297].veinsmobility 	stopTime 	2000
scalar RSUExampleScenario.node[297].veinsmobility 	minSpeed 	0.25145474928687
scalar RSUExampleScenario.node[297].veinsmobility 	maxSpeed 	18.999381757092
scalar RSUExampleScenario.node[297].veinsmobility 	totalDistance 	3324.1423132785
scalar RSUExampleScenario.node[297].veinsmobility 	totalCO2Emission 	683.97156380953
scalar RSUExampleScenario.node[298].veinsmobility 	startTime 	1788.1
scalar RSUExampleScenario.node[298].veinsmobility 	totalTime 	211.8
scalar RSUExampleScenario.node[298].veinsmobility 	stopTime 	2000
scalar RSUExampleScenario.node[298].veinsmobility 	minSpeed 	0.25289706863905
scalar RSUExampleScenario.node[298].veinsmobility 	maxSpeed 	18.999972933189
scalar RSUExampleScenario.node[298].veinsmobility 	totalDistance 	3236.7467184294
scalar RSUExampleScenario.node[298].veinsmobility 	totalCO2Emission 	668.29146595095
scalar RSUExampleScenario.node[299].veinsmobility 	startTime 	1794.1
scalar RSUExampleScenario.node[299].veinsmobility 	totalTime 	205.8
scalar RSUExampleScenario.node[299].veinsmobility 	stopTime 	2000
scalar RSUExampleScenario.node[299].veinsmobility 	minSpeed 	0.25283202925883
scalar RSUExampleScenario.node[299].veinsmobility 	maxSpeed 	18.999990805222
scalar RSUExampleScenario.node[299].veinsmobility 	totalDistance 	3159.2619317343
scalar RSUExampleScenario.node[299].veinsmobility 	totalCO2Emission 	657.82809079966
