version 2
run statisticLeach-807-20150323-16:24:34-13904
attr c 11
attr configname statisticLeach
attr datetime 20150323-16:24:34
attr experiment statisticLeach
attr inifile omnetpp.ini
attr iterationvars "$p=1/4, $c=11"
attr iterationvars2 "$p=1/4, $c=11, $repetition=7"
attr measurement "$p=1/4, $c=11"
attr network RSUExampleScenario
attr p 1/4
attr processid 13904
attr repetition 7
attr replication #7
attr resultdir results
attr runnumber 807
attr seedset 807

scalar . 	c 	11
scalar RSUExampleScenario.node[0].appl 	meanClusterNodes 	0.85714285714286
scalar RSUExampleScenario.node[0].appl 	meanClusterHeadUtility 	4.8295295784882
scalar RSUExampleScenario.node[0].appl 	NumberofCH 	0.18918918918919
scalar RSUExampleScenario.node[0].appl 	NumberofON 	0.43243243243243
scalar RSUExampleScenario.node[0].appl 	NumberofFN 	0.37837837837838
scalar RSUExampleScenario.node[0].veinsmobility 	startTime 	0.1
scalar RSUExampleScenario.node[0].veinsmobility 	totalTime 	449.9
scalar RSUExampleScenario.node[0].veinsmobility 	stopTime 	450
scalar RSUExampleScenario.node[0].veinsmobility 	minSpeed 	0
scalar RSUExampleScenario.node[0].veinsmobility 	maxSpeed 	13.99993808127
scalar RSUExampleScenario.node[0].veinsmobility 	totalDistance 	3131.8774985469
scalar RSUExampleScenario.node[0].veinsmobility 	totalCO2Emission 	841.38091461369
scalar RSUExampleScenario.node[1].appl 	meanClusterNodes 	2.4444444444444
scalar RSUExampleScenario.node[1].appl 	meanClusterHeadUtility 	4.1424147162928
scalar RSUExampleScenario.node[1].appl 	NumberofCH 	0.24324324324324
scalar RSUExampleScenario.node[1].appl 	NumberofON 	0.32432432432432
scalar RSUExampleScenario.node[1].appl 	NumberofFN 	0.43243243243243
scalar RSUExampleScenario.node[1].veinsmobility 	startTime 	2.5
scalar RSUExampleScenario.node[1].veinsmobility 	totalTime 	447.5
scalar RSUExampleScenario.node[1].veinsmobility 	stopTime 	450
scalar RSUExampleScenario.node[1].veinsmobility 	minSpeed 	0
scalar RSUExampleScenario.node[1].veinsmobility 	maxSpeed 	13.999957155276
scalar RSUExampleScenario.node[1].veinsmobility 	totalDistance 	3081.4431408202
scalar RSUExampleScenario.node[1].veinsmobility 	totalCO2Emission 	825.57517477304
scalar RSUExampleScenario.node[10].appl 	meanClusterNodes 	1.625
scalar RSUExampleScenario.node[10].appl 	meanClusterHeadUtility 	4.3201400662766
scalar RSUExampleScenario.node[10].appl 	NumberofCH 	0.21621621621622
scalar RSUExampleScenario.node[10].appl 	NumberofON 	0.56756756756757
scalar RSUExampleScenario.node[10].appl 	NumberofFN 	0.21621621621622
scalar RSUExampleScenario.node[10].veinsmobility 	startTime 	24.2
scalar RSUExampleScenario.node[10].veinsmobility 	totalTime 	425.8
scalar RSUExampleScenario.node[10].veinsmobility 	stopTime 	450
scalar RSUExampleScenario.node[10].veinsmobility 	minSpeed 	0
scalar RSUExampleScenario.node[10].veinsmobility 	maxSpeed 	13.9999897489
scalar RSUExampleScenario.node[10].veinsmobility 	totalDistance 	2793.7212278574
scalar RSUExampleScenario.node[10].veinsmobility 	totalCO2Emission 	756.40116505239
scalar RSUExampleScenario.node[11].appl 	meanClusterNodes 	2.8888888888889
scalar RSUExampleScenario.node[11].appl 	meanClusterHeadUtility 	3.7937517872871
scalar RSUExampleScenario.node[11].appl 	NumberofCH 	0.24324324324324
scalar RSUExampleScenario.node[11].appl 	NumberofON 	0.62162162162162
scalar RSUExampleScenario.node[11].appl 	NumberofFN 	0.13513513513514
scalar RSUExampleScenario.node[11].veinsmobility 	startTime 	26.6
scalar RSUExampleScenario.node[11].veinsmobility 	totalTime 	423.4
scalar RSUExampleScenario.node[11].veinsmobility 	stopTime 	450
scalar RSUExampleScenario.node[11].veinsmobility 	minSpeed 	0
scalar RSUExampleScenario.node[11].veinsmobility 	maxSpeed 	13.999978790951
scalar RSUExampleScenario.node[11].veinsmobility 	totalDistance 	2756.2368343415
scalar RSUExampleScenario.node[11].veinsmobility 	totalCO2Emission 	749.39958248614
scalar RSUExampleScenario.node[12].appl 	meanClusterNodes 	1
scalar RSUExampleScenario.node[12].appl 	meanClusterHeadUtility 	3.4711408649408
scalar RSUExampleScenario.node[12].appl 	NumberofCH 	0.27027027027027
scalar RSUExampleScenario.node[12].appl 	NumberofON 	0.72972972972973
scalar RSUExampleScenario.node[12].appl 	NumberofFN 	0
scalar RSUExampleScenario.node[12].veinsmobility 	startTime 	29
scalar RSUExampleScenario.node[12].veinsmobility 	totalTime 	421
scalar RSUExampleScenario.node[12].veinsmobility 	stopTime 	450
scalar RSUExampleScenario.node[12].veinsmobility 	minSpeed 	0
scalar RSUExampleScenario.node[12].veinsmobility 	maxSpeed 	13.999978320769
scalar RSUExampleScenario.node[12].veinsmobility 	totalDistance 	2722.5983005874
scalar RSUExampleScenario.node[12].veinsmobility 	totalCO2Emission 	748.69046339256
scalar RSUExampleScenario.node[13].appl 	meanClusterNodes 	2.5
scalar RSUExampleScenario.node[13].appl 	meanClusterHeadUtility 	3.9447667454407
scalar RSUExampleScenario.node[13].appl 	NumberofCH 	0.21621621621622
scalar RSUExampleScenario.node[13].appl 	NumberofON 	0.62162162162162
scalar RSUExampleScenario.node[13].appl 	NumberofFN 	0.16216216216216
scalar RSUExampleScenario.node[13].veinsmobility 	startTime 	31.4
scalar RSUExampleScenario.node[13].veinsmobility 	totalTime 	418.6
scalar RSUExampleScenario.node[13].veinsmobility 	stopTime 	450
scalar RSUExampleScenario.node[13].veinsmobility 	minSpeed 	0
scalar RSUExampleScenario.node[13].veinsmobility 	maxSpeed 	13.999919199254
scalar RSUExampleScenario.node[13].veinsmobility 	totalDistance 	2679.8829060085
scalar RSUExampleScenario.node[13].veinsmobility 	totalCO2Emission 	741.38865011773
scalar RSUExampleScenario.node[14].appl 	meanClusterNodes 	2.2222222222222
scalar RSUExampleScenario.node[14].appl 	meanClusterHeadUtility 	3.7503985990035
scalar RSUExampleScenario.node[14].appl 	NumberofCH 	0.24324324324324
scalar RSUExampleScenario.node[14].appl 	NumberofON 	0.7027027027027
scalar RSUExampleScenario.node[14].appl 	NumberofFN 	0.054054054054054
scalar RSUExampleScenario.node[14].veinsmobility 	startTime 	33.8
scalar RSUExampleScenario.node[14].veinsmobility 	totalTime 	416.2
scalar RSUExampleScenario.node[14].veinsmobility 	stopTime 	450
scalar RSUExampleScenario.node[14].veinsmobility 	minSpeed 	0
scalar RSUExampleScenario.node[14].veinsmobility 	maxSpeed 	13.999987153995
scalar RSUExampleScenario.node[14].veinsmobility 	totalDistance 	2653.5381456741
scalar RSUExampleScenario.node[14].veinsmobility 	totalCO2Emission 	738.30888863013
scalar RSUExampleScenario.node[15].appl 	meanClusterNodes 	2.6666666666667
scalar RSUExampleScenario.node[15].appl 	meanClusterHeadUtility 	4.0856671349441
scalar RSUExampleScenario.node[15].appl 	NumberofCH 	0.24324324324324
scalar RSUExampleScenario.node[15].appl 	NumberofON 	0.7027027027027
scalar RSUExampleScenario.node[15].appl 	NumberofFN 	0.054054054054054
scalar RSUExampleScenario.node[15].veinsmobility 	startTime 	36.2
scalar RSUExampleScenario.node[15].veinsmobility 	totalTime 	413.8
scalar RSUExampleScenario.node[15].veinsmobility 	stopTime 	450
scalar RSUExampleScenario.node[15].veinsmobility 	minSpeed 	0
scalar RSUExampleScenario.node[15].veinsmobility 	maxSpeed 	13.999865449278
scalar RSUExampleScenario.node[15].veinsmobility 	totalDistance 	2614.2615639991
scalar RSUExampleScenario.node[15].veinsmobility 	totalCO2Emission 	726.81017314573
scalar RSUExampleScenario.node[16].appl 	meanClusterNodes 	3.625
scalar RSUExampleScenario.node[16].appl 	meanClusterHeadUtility 	4.2586694362026
scalar RSUExampleScenario.node[16].appl 	NumberofCH 	0.21621621621622
scalar RSUExampleScenario.node[16].appl 	NumberofON 	0.72972972972973
scalar RSUExampleScenario.node[16].appl 	NumberofFN 	0.054054054054054
scalar RSUExampleScenario.node[16].veinsmobility 	startTime 	38.6
scalar RSUExampleScenario.node[16].veinsmobility 	totalTime 	411.4
scalar RSUExampleScenario.node[16].veinsmobility 	stopTime 	450
scalar RSUExampleScenario.node[16].veinsmobility 	minSpeed 	0
scalar RSUExampleScenario.node[16].veinsmobility 	maxSpeed 	13.999971609267
scalar RSUExampleScenario.node[16].veinsmobility 	totalDistance 	2584.1181243926
scalar RSUExampleScenario.node[16].veinsmobility 	totalCO2Emission 	722.0322863384
scalar RSUExampleScenario.node[17].appl 	meanClusterNodes 	0.5
scalar RSUExampleScenario.node[17].appl 	meanClusterHeadUtility 	4.0480345158021
scalar RSUExampleScenario.node[17].appl 	NumberofCH 	0.21621621621622
scalar RSUExampleScenario.node[17].appl 	NumberofON 	0.67567567567568
scalar RSUExampleScenario.node[17].appl 	NumberofFN 	0.10810810810811
scalar RSUExampleScenario.node[17].veinsmobility 	startTime 	41
scalar RSUExampleScenario.node[17].veinsmobility 	totalTime 	409
scalar RSUExampleScenario.node[17].veinsmobility 	stopTime 	450
scalar RSUExampleScenario.node[17].veinsmobility 	minSpeed 	0
scalar RSUExampleScenario.node[17].veinsmobility 	maxSpeed 	13.999924289694
scalar RSUExampleScenario.node[17].veinsmobility 	totalDistance 	2538.8386081079
scalar RSUExampleScenario.node[17].veinsmobility 	totalCO2Emission 	721.11751726324
scalar RSUExampleScenario.node[18].appl 	meanClusterNodes 	4.6
scalar RSUExampleScenario.node[18].appl 	meanClusterHeadUtility 	3.3931359365783
scalar RSUExampleScenario.node[18].appl 	NumberofCH 	0.27027027027027
scalar RSUExampleScenario.node[18].appl 	NumberofON 	0.35135135135135
scalar RSUExampleScenario.node[18].appl 	NumberofFN 	0.37837837837838
scalar RSUExampleScenario.node[18].veinsmobility 	startTime 	43.4
scalar RSUExampleScenario.node[18].veinsmobility 	totalTime 	406.6
scalar RSUExampleScenario.node[18].veinsmobility 	stopTime 	450
scalar RSUExampleScenario.node[18].veinsmobility 	minSpeed 	0
scalar RSUExampleScenario.node[18].veinsmobility 	maxSpeed 	13.999797922526
scalar RSUExampleScenario.node[18].veinsmobility 	totalDistance 	2509.6000971335
scalar RSUExampleScenario.node[18].veinsmobility 	totalCO2Emission 	713.71605531948
scalar RSUExampleScenario.node[19].appl 	meanClusterNodes 	2.8
scalar RSUExampleScenario.node[19].appl 	meanClusterHeadUtility 	3.0922892721895
scalar RSUExampleScenario.node[19].appl 	NumberofCH 	0.27027027027027
scalar RSUExampleScenario.node[19].appl 	NumberofON 	0.72972972972973
scalar RSUExampleScenario.node[19].appl 	NumberofFN 	0
scalar RSUExampleScenario.node[19].veinsmobility 	startTime 	45.8
scalar RSUExampleScenario.node[19].veinsmobility 	totalTime 	404.2
scalar RSUExampleScenario.node[19].veinsmobility 	stopTime 	450
scalar RSUExampleScenario.node[19].veinsmobility 	minSpeed 	0
scalar RSUExampleScenario.node[19].veinsmobility 	maxSpeed 	13.999904817846
scalar RSUExampleScenario.node[19].veinsmobility 	totalDistance 	2471.3232081368
scalar RSUExampleScenario.node[19].veinsmobility 	totalCO2Emission 	705.91920637891
scalar RSUExampleScenario.node[2].appl 	meanClusterNodes 	0.9
scalar RSUExampleScenario.node[2].appl 	meanClusterHeadUtility 	3.4271899676992
scalar RSUExampleScenario.node[2].appl 	NumberofCH 	0.27027027027027
scalar RSUExampleScenario.node[2].appl 	NumberofON 	0.54054054054054
scalar RSUExampleScenario.node[2].appl 	NumberofFN 	0.18918918918919
scalar RSUExampleScenario.node[2].veinsmobility 	startTime 	4.9
scalar RSUExampleScenario.node[2].veinsmobility 	totalTime 	445.1
scalar RSUExampleScenario.node[2].veinsmobility 	stopTime 	450
scalar RSUExampleScenario.node[2].veinsmobility 	minSpeed 	0
scalar RSUExampleScenario.node[2].veinsmobility 	maxSpeed 	13.999962303224
scalar RSUExampleScenario.node[2].veinsmobility 	totalDistance 	3041.3451923691
scalar RSUExampleScenario.node[2].veinsmobility 	totalCO2Emission 	826.86371297488
scalar RSUExampleScenario.node[20].appl 	meanClusterNodes 	2.1
scalar RSUExampleScenario.node[20].appl 	meanClusterHeadUtility 	3.4056882362118
scalar RSUExampleScenario.node[20].appl 	NumberofCH 	0.27027027027027
scalar RSUExampleScenario.node[20].appl 	NumberofON 	0.7027027027027
scalar RSUExampleScenario.node[20].appl 	NumberofFN 	0.027027027027027
scalar RSUExampleScenario.node[20].veinsmobility 	startTime 	48.3
scalar RSUExampleScenario.node[20].veinsmobility 	totalTime 	401.7
scalar RSUExampleScenario.node[20].veinsmobility 	stopTime 	450
scalar RSUExampleScenario.node[20].veinsmobility 	minSpeed 	0
scalar RSUExampleScenario.node[20].veinsmobility 	maxSpeed 	13.999959736257
scalar RSUExampleScenario.node[20].veinsmobility 	totalDistance 	2440.9396589835
scalar RSUExampleScenario.node[20].veinsmobility 	totalCO2Emission 	701.12239849598
scalar RSUExampleScenario.node[21].appl 	meanClusterNodes 	2.3
scalar RSUExampleScenario.node[21].appl 	meanClusterHeadUtility 	3.096413541164
scalar RSUExampleScenario.node[21].appl 	NumberofCH 	0.27027027027027
scalar RSUExampleScenario.node[21].appl 	NumberofON 	0.62162162162162
scalar RSUExampleScenario.node[21].appl 	NumberofFN 	0.10810810810811
scalar RSUExampleScenario.node[21].veinsmobility 	startTime 	50.7
scalar RSUExampleScenario.node[21].veinsmobility 	totalTime 	399.3
scalar RSUExampleScenario.node[21].veinsmobility 	stopTime 	450
scalar RSUExampleScenario.node[21].veinsmobility 	minSpeed 	0
scalar RSUExampleScenario.node[21].veinsmobility 	maxSpeed 	13.999483056981
scalar RSUExampleScenario.node[21].veinsmobility 	totalDistance 	2401.8404231837
scalar RSUExampleScenario.node[21].veinsmobility 	totalCO2Emission 	694.79488697684
scalar RSUExampleScenario.node[22].appl 	meanClusterNodes 	1.2
scalar RSUExampleScenario.node[22].appl 	meanClusterHeadUtility 	3.6796558478028
scalar RSUExampleScenario.node[22].appl 	NumberofCH 	0.27027027027027
scalar RSUExampleScenario.node[22].appl 	NumberofON 	0.48648648648649
scalar RSUExampleScenario.node[22].appl 	NumberofFN 	0.24324324324324
scalar RSUExampleScenario.node[22].veinsmobility 	startTime 	53.1
scalar RSUExampleScenario.node[22].veinsmobility 	totalTime 	396.9
scalar RSUExampleScenario.node[22].veinsmobility 	stopTime 	450
scalar RSUExampleScenario.node[22].veinsmobility 	minSpeed 	0
scalar RSUExampleScenario.node[22].veinsmobility 	maxSpeed 	13.99998473519
scalar RSUExampleScenario.node[22].veinsmobility 	totalDistance 	2372.8519382089
scalar RSUExampleScenario.node[22].veinsmobility 	totalCO2Emission 	689.40222915556
scalar RSUExampleScenario.node[23].appl 	meanClusterNodes 	4.6
scalar RSUExampleScenario.node[23].appl 	meanClusterHeadUtility 	3.2814185162229
scalar RSUExampleScenario.node[23].appl 	NumberofCH 	0.27027027027027
scalar RSUExampleScenario.node[23].appl 	NumberofON 	0.59459459459459
scalar RSUExampleScenario.node[23].appl 	NumberofFN 	0.13513513513514
scalar RSUExampleScenario.node[23].veinsmobility 	startTime 	55.5
scalar RSUExampleScenario.node[23].veinsmobility 	totalTime 	394.5
scalar RSUExampleScenario.node[23].veinsmobility 	stopTime 	450
scalar RSUExampleScenario.node[23].veinsmobility 	minSpeed 	0
scalar RSUExampleScenario.node[23].veinsmobility 	maxSpeed 	13.999901710898
scalar RSUExampleScenario.node[23].veinsmobility 	totalDistance 	2334.9534619969
scalar RSUExampleScenario.node[23].veinsmobility 	totalCO2Emission 	684.37804642837
scalar RSUExampleScenario.node[24].appl 	meanClusterNodes 	1.7777777777778
scalar RSUExampleScenario.node[24].appl 	meanClusterHeadUtility 	3.6516443029657
scalar RSUExampleScenario.node[24].appl 	NumberofCH 	0.24324324324324
scalar RSUExampleScenario.node[24].appl 	NumberofON 	0.75675675675676
scalar RSUExampleScenario.node[24].appl 	NumberofFN 	0
scalar RSUExampleScenario.node[24].veinsmobility 	startTime 	57.9
scalar RSUExampleScenario.node[24].veinsmobility 	totalTime 	392.1
scalar RSUExampleScenario.node[24].veinsmobility 	stopTime 	450
scalar RSUExampleScenario.node[24].veinsmobility 	minSpeed 	0
scalar RSUExampleScenario.node[24].veinsmobility 	maxSpeed 	13.999838379985
scalar RSUExampleScenario.node[24].veinsmobility 	totalDistance 	2306.6486919437
scalar RSUExampleScenario.node[24].veinsmobility 	totalCO2Emission 	676.63824229815
scalar RSUExampleScenario.node[25].appl 	meanClusterNodes 	3.8888888888889
scalar RSUExampleScenario.node[25].appl 	meanClusterHeadUtility 	3.8699695102566
scalar RSUExampleScenario.node[25].appl 	NumberofCH 	0.24324324324324
scalar RSUExampleScenario.node[25].appl 	NumberofON 	0.7027027027027
scalar RSUExampleScenario.node[25].appl 	NumberofFN 	0.054054054054054
scalar RSUExampleScenario.node[25].veinsmobility 	startTime 	60.3
scalar RSUExampleScenario.node[25].veinsmobility 	totalTime 	389.7
scalar RSUExampleScenario.node[25].veinsmobility 	stopTime 	450
scalar RSUExampleScenario.node[25].veinsmobility 	minSpeed 	0
scalar RSUExampleScenario.node[25].veinsmobility 	maxSpeed 	13.999971294662
scalar RSUExampleScenario.node[25].veinsmobility 	totalDistance 	2268.4692285831
scalar RSUExampleScenario.node[25].veinsmobility 	totalCO2Emission 	673.43208481506
scalar RSUExampleScenario.node[26].appl 	meanClusterNodes 	2.3333333333333
scalar RSUExampleScenario.node[26].appl 	meanClusterHeadUtility 	3.8379495882957
scalar RSUExampleScenario.node[26].appl 	NumberofCH 	0.24324324324324
scalar RSUExampleScenario.node[26].appl 	NumberofON 	0.75675675675676
scalar RSUExampleScenario.node[26].appl 	NumberofFN 	0
scalar RSUExampleScenario.node[26].veinsmobility 	startTime 	62.7
scalar RSUExampleScenario.node[26].veinsmobility 	totalTime 	387.3
scalar RSUExampleScenario.node[26].veinsmobility 	stopTime 	450
scalar RSUExampleScenario.node[26].veinsmobility 	minSpeed 	0
scalar RSUExampleScenario.node[26].veinsmobility 	maxSpeed 	13.999954160592
scalar RSUExampleScenario.node[26].veinsmobility 	totalDistance 	2240.3554978001
scalar RSUExampleScenario.node[26].veinsmobility 	totalCO2Emission 	669.13858683688
scalar RSUExampleScenario.node[27].appl 	meanClusterNodes 	4.4444444444444
scalar RSUExampleScenario.node[27].appl 	meanClusterHeadUtility 	3.7600155905595
scalar RSUExampleScenario.node[27].appl 	NumberofCH 	0.24324324324324
scalar RSUExampleScenario.node[27].appl 	NumberofON 	0.37837837837838
scalar RSUExampleScenario.node[27].appl 	NumberofFN 	0.37837837837838
scalar RSUExampleScenario.node[27].veinsmobility 	startTime 	65.1
scalar RSUExampleScenario.node[27].veinsmobility 	totalTime 	384.9
scalar RSUExampleScenario.node[27].veinsmobility 	stopTime 	450
scalar RSUExampleScenario.node[27].veinsmobility 	minSpeed 	0
scalar RSUExampleScenario.node[27].veinsmobility 	maxSpeed 	13.999825895047
scalar RSUExampleScenario.node[27].veinsmobility 	totalDistance 	2200.2951347515
scalar RSUExampleScenario.node[27].veinsmobility 	totalCO2Emission 	660.77490966013
scalar RSUExampleScenario.node[28].appl 	meanClusterNodes 	4.1
scalar RSUExampleScenario.node[28].appl 	meanClusterHeadUtility 	3.2509028159397
scalar RSUExampleScenario.node[28].appl 	NumberofCH 	0.27027027027027
scalar RSUExampleScenario.node[28].appl 	NumberofON 	0.72972972972973
scalar RSUExampleScenario.node[28].appl 	NumberofFN 	0
scalar RSUExampleScenario.node[28].veinsmobility 	startTime 	67.5
scalar RSUExampleScenario.node[28].veinsmobility 	totalTime 	382.5
scalar RSUExampleScenario.node[28].veinsmobility 	stopTime 	450
scalar RSUExampleScenario.node[28].veinsmobility 	minSpeed 	0
scalar RSUExampleScenario.node[28].veinsmobility 	maxSpeed 	13.999995429262
scalar RSUExampleScenario.node[28].veinsmobility 	totalDistance 	2169.8311233531
scalar RSUExampleScenario.node[28].veinsmobility 	totalCO2Emission 	653.73297004206
scalar RSUExampleScenario.node[29].appl 	meanClusterNodes 	3.1
scalar RSUExampleScenario.node[29].appl 	meanClusterHeadUtility 	3.6321359526538
scalar RSUExampleScenario.node[29].appl 	NumberofCH 	0.27027027027027
scalar RSUExampleScenario.node[29].appl 	NumberofON 	0.48648648648649
scalar RSUExampleScenario.node[29].appl 	NumberofFN 	0.24324324324324
scalar RSUExampleScenario.node[29].veinsmobility 	startTime 	69.9
scalar RSUExampleScenario.node[29].veinsmobility 	totalTime 	380.1
scalar RSUExampleScenario.node[29].veinsmobility 	stopTime 	450
scalar RSUExampleScenario.node[29].veinsmobility 	minSpeed 	0
scalar RSUExampleScenario.node[29].veinsmobility 	maxSpeed 	13.999986188749
scalar RSUExampleScenario.node[29].veinsmobility 	totalDistance 	2132.2696639258
scalar RSUExampleScenario.node[29].veinsmobility 	totalCO2Emission 	651.03611772772
scalar RSUExampleScenario.node[3].appl 	meanClusterNodes 	0.8
scalar RSUExampleScenario.node[3].appl 	meanClusterHeadUtility 	3.1072178467519
scalar RSUExampleScenario.node[3].appl 	NumberofCH 	0.27027027027027
scalar RSUExampleScenario.node[3].appl 	NumberofON 	0.67567567567568
scalar RSUExampleScenario.node[3].appl 	NumberofFN 	0.054054054054054
scalar RSUExampleScenario.node[3].veinsmobility 	startTime 	7.3
scalar RSUExampleScenario.node[3].veinsmobility 	totalTime 	442.7
scalar RSUExampleScenario.node[3].veinsmobility 	stopTime 	450
scalar RSUExampleScenario.node[3].veinsmobility 	minSpeed 	0
scalar RSUExampleScenario.node[3].veinsmobility 	maxSpeed 	13.999827981328
scalar RSUExampleScenario.node[3].veinsmobility 	totalDistance 	2994.1513961216
scalar RSUExampleScenario.node[3].veinsmobility 	totalCO2Emission 	815.26122654111
scalar RSUExampleScenario.node[30].appl 	meanClusterNodes 	3.5555555555556
scalar RSUExampleScenario.node[30].appl 	meanClusterHeadUtility 	3.6331872882721
scalar RSUExampleScenario.node[30].appl 	NumberofCH 	0.24324324324324
scalar RSUExampleScenario.node[30].appl 	NumberofON 	0.7027027027027
scalar RSUExampleScenario.node[30].appl 	NumberofFN 	0.054054054054054
scalar RSUExampleScenario.node[30].veinsmobility 	startTime 	72.4
scalar RSUExampleScenario.node[30].veinsmobility 	totalTime 	377.6
scalar RSUExampleScenario.node[30].veinsmobility 	stopTime 	450
scalar RSUExampleScenario.node[30].veinsmobility 	minSpeed 	0
scalar RSUExampleScenario.node[30].veinsmobility 	maxSpeed 	13.999690824926
scalar RSUExampleScenario.node[30].veinsmobility 	totalDistance 	2100.9000510413
scalar RSUExampleScenario.node[30].veinsmobility 	totalCO2Emission 	641.96210418938
scalar RSUExampleScenario.node[31].appl 	meanClusterNodes 	0.33333333333333
scalar RSUExampleScenario.node[31].appl 	meanClusterHeadUtility 	3.4026475904996
scalar RSUExampleScenario.node[31].appl 	NumberofCH 	0.24324324324324
scalar RSUExampleScenario.node[31].appl 	NumberofON 	0.67567567567568
scalar RSUExampleScenario.node[31].appl 	NumberofFN 	0.081081081081081
scalar RSUExampleScenario.node[31].veinsmobility 	startTime 	74.8
scalar RSUExampleScenario.node[31].veinsmobility 	totalTime 	375.2
scalar RSUExampleScenario.node[31].veinsmobility 	stopTime 	450
scalar RSUExampleScenario.node[31].veinsmobility 	minSpeed 	0
scalar RSUExampleScenario.node[31].veinsmobility 	maxSpeed 	13.999943828131
scalar RSUExampleScenario.node[31].veinsmobility 	totalDistance 	2065.50928401
scalar RSUExampleScenario.node[31].veinsmobility 	totalCO2Emission 	637.16209458147
scalar RSUExampleScenario.node[32].appl 	meanClusterNodes 	1.6666666666667
scalar RSUExampleScenario.node[32].appl 	meanClusterHeadUtility 	3.8228173587655
scalar RSUExampleScenario.node[32].appl 	NumberofCH 	0.24324324324324
scalar RSUExampleScenario.node[32].appl 	NumberofON 	0.75675675675676
scalar RSUExampleScenario.node[32].appl 	NumberofFN 	0
scalar RSUExampleScenario.node[32].veinsmobility 	startTime 	77.2
scalar RSUExampleScenario.node[32].veinsmobility 	totalTime 	372.8
scalar RSUExampleScenario.node[32].veinsmobility 	stopTime 	450
scalar RSUExampleScenario.node[32].veinsmobility 	minSpeed 	0
scalar RSUExampleScenario.node[32].veinsmobility 	maxSpeed 	13.999931571323
scalar RSUExampleScenario.node[32].veinsmobility 	totalDistance 	2031.9971507309
scalar RSUExampleScenario.node[32].veinsmobility 	totalCO2Emission 	632.15225596096
scalar RSUExampleScenario.node[33].appl 	meanClusterNodes 	3.2
scalar RSUExampleScenario.node[33].appl 	meanClusterHeadUtility 	3.4734512803906
scalar RSUExampleScenario.node[33].appl 	NumberofCH 	0.27027027027027
scalar RSUExampleScenario.node[33].appl 	NumberofON 	0.72972972972973
scalar RSUExampleScenario.node[33].appl 	NumberofFN 	0
scalar RSUExampleScenario.node[33].veinsmobility 	startTime 	79.6
scalar RSUExampleScenario.node[33].veinsmobility 	totalTime 	370.4
scalar RSUExampleScenario.node[33].veinsmobility 	stopTime 	450
scalar RSUExampleScenario.node[33].veinsmobility 	minSpeed 	0
scalar RSUExampleScenario.node[33].veinsmobility 	maxSpeed 	13.999799959017
scalar RSUExampleScenario.node[33].veinsmobility 	totalDistance 	1998.2400925554
scalar RSUExampleScenario.node[33].veinsmobility 	totalCO2Emission 	624.02953409254
scalar RSUExampleScenario.node[34].appl 	meanClusterNodes 	1.75
scalar RSUExampleScenario.node[34].appl 	meanClusterHeadUtility 	4.1089205907552
scalar RSUExampleScenario.node[34].appl 	NumberofCH 	0.21621621621622
scalar RSUExampleScenario.node[34].appl 	NumberofON 	0.62162162162162
scalar RSUExampleScenario.node[34].appl 	NumberofFN 	0.16216216216216
scalar RSUExampleScenario.node[34].veinsmobility 	startTime 	82
scalar RSUExampleScenario.node[34].veinsmobility 	totalTime 	368
scalar RSUExampleScenario.node[34].veinsmobility 	stopTime 	450
scalar RSUExampleScenario.node[34].veinsmobility 	minSpeed 	0
scalar RSUExampleScenario.node[34].veinsmobility 	maxSpeed 	13.999761217935
scalar RSUExampleScenario.node[34].veinsmobility 	totalDistance 	1965.1520559567
scalar RSUExampleScenario.node[34].veinsmobility 	totalCO2Emission 	623.11554869352
scalar RSUExampleScenario.node[35].appl 	meanClusterNodes 	1.1
scalar RSUExampleScenario.node[35].appl 	meanClusterHeadUtility 	3.4493268071168
scalar RSUExampleScenario.node[35].appl 	NumberofCH 	0.27027027027027
scalar RSUExampleScenario.node[35].appl 	NumberofON 	0.7027027027027
scalar RSUExampleScenario.node[35].appl 	NumberofFN 	0.027027027027027
scalar RSUExampleScenario.node[35].veinsmobility 	startTime 	84.4
scalar RSUExampleScenario.node[35].veinsmobility 	totalTime 	365.6
scalar RSUExampleScenario.node[35].veinsmobility 	stopTime 	450
scalar RSUExampleScenario.node[35].veinsmobility 	minSpeed 	0
scalar RSUExampleScenario.node[35].veinsmobility 	maxSpeed 	13.99987145935
scalar RSUExampleScenario.node[35].veinsmobility 	totalDistance 	1931.033416036
scalar RSUExampleScenario.node[35].veinsmobility 	totalCO2Emission 	616.02785111032
scalar RSUExampleScenario.node[36].appl 	meanClusterNodes 	2.5555555555556
scalar RSUExampleScenario.node[36].appl 	meanClusterHeadUtility 	3.6412435950907
scalar RSUExampleScenario.node[36].appl 	NumberofCH 	0.24324324324324
scalar RSUExampleScenario.node[36].appl 	NumberofON 	0.75675675675676
scalar RSUExampleScenario.node[36].appl 	NumberofFN 	0
scalar RSUExampleScenario.node[36].veinsmobility 	startTime 	86.8
scalar RSUExampleScenario.node[36].veinsmobility 	totalTime 	363.2
scalar RSUExampleScenario.node[36].veinsmobility 	stopTime 	450
scalar RSUExampleScenario.node[36].veinsmobility 	minSpeed 	0
scalar RSUExampleScenario.node[36].veinsmobility 	maxSpeed 	13.999978238682
scalar RSUExampleScenario.node[36].veinsmobility 	totalDistance 	1898.0411403369
scalar RSUExampleScenario.node[36].veinsmobility 	totalCO2Emission 	608.82280647029
scalar RSUExampleScenario.node[37].appl 	meanClusterNodes 	2.1111111111111
scalar RSUExampleScenario.node[37].appl 	meanClusterHeadUtility 	3.8272167158147
scalar RSUExampleScenario.node[37].appl 	NumberofCH 	0.24324324324324
scalar RSUExampleScenario.node[37].appl 	NumberofON 	0.75675675675676
scalar RSUExampleScenario.node[37].appl 	NumberofFN 	0
scalar RSUExampleScenario.node[37].veinsmobility 	startTime 	89.2
scalar RSUExampleScenario.node[37].veinsmobility 	totalTime 	360.8
scalar RSUExampleScenario.node[37].veinsmobility 	stopTime 	450
scalar RSUExampleScenario.node[37].veinsmobility 	minSpeed 	0
scalar RSUExampleScenario.node[37].veinsmobility 	maxSpeed 	13.999980390614
scalar RSUExampleScenario.node[37].veinsmobility 	totalDistance 	1863.5075171718
scalar RSUExampleScenario.node[37].veinsmobility 	totalCO2Emission 	601.2375203486
scalar RSUExampleScenario.node[38].appl 	meanClusterNodes 	3
scalar RSUExampleScenario.node[38].appl 	meanClusterHeadUtility 	3.8689674038709
scalar RSUExampleScenario.node[38].appl 	NumberofCH 	0.21621621621622
scalar RSUExampleScenario.node[38].appl 	NumberofON 	0.37837837837838
scalar RSUExampleScenario.node[38].appl 	NumberofFN 	0.40540540540541
scalar RSUExampleScenario.node[38].veinsmobility 	startTime 	91.6
scalar RSUExampleScenario.node[38].veinsmobility 	totalTime 	358.4
scalar RSUExampleScenario.node[38].veinsmobility 	stopTime 	450
scalar RSUExampleScenario.node[38].veinsmobility 	minSpeed 	0
scalar RSUExampleScenario.node[38].veinsmobility 	maxSpeed 	13.99997740377
scalar RSUExampleScenario.node[38].veinsmobility 	totalDistance 	1831.1344939439
scalar RSUExampleScenario.node[38].veinsmobility 	totalCO2Emission 	597.26711183673
scalar RSUExampleScenario.node[39].appl 	meanClusterNodes 	4.9
scalar RSUExampleScenario.node[39].appl 	meanClusterHeadUtility 	3.709104935694
scalar RSUExampleScenario.node[39].appl 	NumberofCH 	0.27027027027027
scalar RSUExampleScenario.node[39].appl 	NumberofON 	0.56756756756757
scalar RSUExampleScenario.node[39].appl 	NumberofFN 	0.16216216216216
scalar RSUExampleScenario.node[39].veinsmobility 	startTime 	94
scalar RSUExampleScenario.node[39].veinsmobility 	totalTime 	356
scalar RSUExampleScenario.node[39].veinsmobility 	stopTime 	450
scalar RSUExampleScenario.node[39].veinsmobility 	minSpeed 	0
scalar RSUExampleScenario.node[39].veinsmobility 	maxSpeed 	13.999929511677
scalar RSUExampleScenario.node[39].veinsmobility 	totalDistance 	1797.5433447717
scalar RSUExampleScenario.node[39].veinsmobility 	totalCO2Emission 	592.51671972015
scalar RSUExampleScenario.node[4].appl 	meanClusterNodes 	3
scalar RSUExampleScenario.node[4].appl 	meanClusterHeadUtility 	3.4825653095636
scalar RSUExampleScenario.node[4].appl 	NumberofCH 	0.27027027027027
scalar RSUExampleScenario.node[4].appl 	NumberofON 	0.51351351351351
scalar RSUExampleScenario.node[4].appl 	NumberofFN 	0.21621621621622
scalar RSUExampleScenario.node[4].veinsmobility 	startTime 	9.7
scalar RSUExampleScenario.node[4].veinsmobility 	totalTime 	440.3
scalar RSUExampleScenario.node[4].veinsmobility 	stopTime 	450
scalar RSUExampleScenario.node[4].veinsmobility 	minSpeed 	0
scalar RSUExampleScenario.node[4].veinsmobility 	maxSpeed 	13.999825742799
scalar RSUExampleScenario.node[4].veinsmobility 	totalDistance 	2952.1575118321
scalar RSUExampleScenario.node[4].veinsmobility 	totalCO2Emission 	800.50997673005
scalar RSUExampleScenario.node[40].appl 	meanClusterNodes 	1.3
scalar RSUExampleScenario.node[40].appl 	meanClusterHeadUtility 	3.4726167330626
scalar RSUExampleScenario.node[40].appl 	NumberofCH 	0.27027027027027
scalar RSUExampleScenario.node[40].appl 	NumberofON 	0.62162162162162
scalar RSUExampleScenario.node[40].appl 	NumberofFN 	0.10810810810811
scalar RSUExampleScenario.node[40].veinsmobility 	startTime 	96.5
scalar RSUExampleScenario.node[40].veinsmobility 	totalTime 	353.5
scalar RSUExampleScenario.node[40].veinsmobility 	stopTime 	450
scalar RSUExampleScenario.node[40].veinsmobility 	minSpeed 	0
scalar RSUExampleScenario.node[40].veinsmobility 	maxSpeed 	13.999953428772
scalar RSUExampleScenario.node[40].veinsmobility 	totalDistance 	1764.6764956147
scalar RSUExampleScenario.node[40].veinsmobility 	totalCO2Emission 	588.48912099698
scalar RSUExampleScenario.node[41].appl 	meanClusterNodes 	3.125
scalar RSUExampleScenario.node[41].appl 	meanClusterHeadUtility 	4.2652900286668
scalar RSUExampleScenario.node[41].appl 	NumberofCH 	0.21621621621622
scalar RSUExampleScenario.node[41].appl 	NumberofON 	0.78378378378378
scalar RSUExampleScenario.node[41].appl 	NumberofFN 	0
scalar RSUExampleScenario.node[41].veinsmobility 	startTime 	98.9
scalar RSUExampleScenario.node[41].veinsmobility 	totalTime 	351.1
scalar RSUExampleScenario.node[41].veinsmobility 	stopTime 	450
scalar RSUExampleScenario.node[41].veinsmobility 	minSpeed 	0
scalar RSUExampleScenario.node[41].veinsmobility 	maxSpeed 	13.999696866749
scalar RSUExampleScenario.node[41].veinsmobility 	totalDistance 	1731.2502497245
scalar RSUExampleScenario.node[41].veinsmobility 	totalCO2Emission 	581.79641264431
scalar RSUExampleScenario.node[42].appl 	meanClusterNodes 	2.4444444444444
scalar RSUExampleScenario.node[42].appl 	meanClusterHeadUtility 	4.57703636256
scalar RSUExampleScenario.node[42].appl 	NumberofCH 	0.24324324324324
scalar RSUExampleScenario.node[42].appl 	NumberofON 	0.75675675675676
scalar RSUExampleScenario.node[42].appl 	NumberofFN 	0
scalar RSUExampleScenario.node[42].veinsmobility 	startTime 	101.3
scalar RSUExampleScenario.node[42].veinsmobility 	totalTime 	348.7
scalar RSUExampleScenario.node[42].veinsmobility 	stopTime 	450
scalar RSUExampleScenario.node[42].veinsmobility 	minSpeed 	0
scalar RSUExampleScenario.node[42].veinsmobility 	maxSpeed 	13.99987672271
scalar RSUExampleScenario.node[42].veinsmobility 	totalDistance 	1697.604804987
scalar RSUExampleScenario.node[42].veinsmobility 	totalCO2Emission 	575.5705507148
scalar RSUExampleScenario.node[43].appl 	meanClusterNodes 	3
scalar RSUExampleScenario.node[43].appl 	meanClusterHeadUtility 	4.0830011914453
scalar RSUExampleScenario.node[43].appl 	NumberofCH 	0.24324324324324
scalar RSUExampleScenario.node[43].appl 	NumberofON 	0.72972972972973
scalar RSUExampleScenario.node[43].appl 	NumberofFN 	0.027027027027027
scalar RSUExampleScenario.node[43].veinsmobility 	startTime 	103.7
scalar RSUExampleScenario.node[43].veinsmobility 	totalTime 	346.3
scalar RSUExampleScenario.node[43].veinsmobility 	stopTime 	450
scalar RSUExampleScenario.node[43].veinsmobility 	minSpeed 	0
scalar RSUExampleScenario.node[43].veinsmobility 	maxSpeed 	13.999552303015
scalar RSUExampleScenario.node[43].veinsmobility 	totalDistance 	1662.8967990807
scalar RSUExampleScenario.node[43].veinsmobility 	totalCO2Emission 	566.34950098362
scalar RSUExampleScenario.node[44].appl 	meanClusterNodes 	1.5
scalar RSUExampleScenario.node[44].appl 	meanClusterHeadUtility 	3.869149684205
scalar RSUExampleScenario.node[44].appl 	NumberofCH 	0.21621621621622
scalar RSUExampleScenario.node[44].appl 	NumberofON 	0.75675675675676
scalar RSUExampleScenario.node[44].appl 	NumberofFN 	0.027027027027027
scalar RSUExampleScenario.node[44].veinsmobility 	startTime 	106.1
scalar RSUExampleScenario.node[44].veinsmobility 	totalTime 	343.9
scalar RSUExampleScenario.node[44].veinsmobility 	stopTime 	450
scalar RSUExampleScenario.node[44].veinsmobility 	minSpeed 	0
scalar RSUExampleScenario.node[44].veinsmobility 	maxSpeed 	13.999429430952
scalar RSUExampleScenario.node[44].veinsmobility 	totalDistance 	1627.9187170752
scalar RSUExampleScenario.node[44].veinsmobility 	totalCO2Emission 	565.48492473901
scalar RSUExampleScenario.node[45].appl 	meanClusterNodes 	2.8571428571429
scalar RSUExampleScenario.node[45].appl 	meanClusterHeadUtility 	4.8452361473296
scalar RSUExampleScenario.node[45].appl 	NumberofCH 	0.18918918918919
scalar RSUExampleScenario.node[45].appl 	NumberofON 	0.7027027027027
scalar RSUExampleScenario.node[45].appl 	NumberofFN 	0.10810810810811
scalar RSUExampleScenario.node[45].veinsmobility 	startTime 	108.5
scalar RSUExampleScenario.node[45].veinsmobility 	totalTime 	341.5
scalar RSUExampleScenario.node[45].veinsmobility 	stopTime 	450
scalar RSUExampleScenario.node[45].veinsmobility 	minSpeed 	0
scalar RSUExampleScenario.node[45].veinsmobility 	maxSpeed 	13.999597906212
scalar RSUExampleScenario.node[45].veinsmobility 	totalDistance 	1594.9965546098
scalar RSUExampleScenario.node[45].veinsmobility 	totalCO2Emission 	557.51111180656
scalar RSUExampleScenario.node[46].appl 	meanClusterNodes 	1.625
scalar RSUExampleScenario.node[46].appl 	meanClusterHeadUtility 	5.1507582742286
scalar RSUExampleScenario.node[46].appl 	NumberofCH 	0.21621621621622
scalar RSUExampleScenario.node[46].appl 	NumberofON 	0.75675675675676
scalar RSUExampleScenario.node[46].appl 	NumberofFN 	0.027027027027027
scalar RSUExampleScenario.node[46].veinsmobility 	startTime 	110.9
scalar RSUExampleScenario.node[46].veinsmobility 	totalTime 	339.1
scalar RSUExampleScenario.node[46].veinsmobility 	stopTime 	450
scalar RSUExampleScenario.node[46].veinsmobility 	minSpeed 	0
scalar RSUExampleScenario.node[46].veinsmobility 	maxSpeed 	13.999987513397
scalar RSUExampleScenario.node[46].veinsmobility 	totalDistance 	1562.3852538165
scalar RSUExampleScenario.node[46].veinsmobility 	totalCO2Emission 	552.24719581922
scalar RSUExampleScenario.node[47].appl 	meanClusterNodes 	2.9
scalar RSUExampleScenario.node[47].appl 	meanClusterHeadUtility 	3.3480363935266
scalar RSUExampleScenario.node[47].appl 	NumberofCH 	0.27027027027027
scalar RSUExampleScenario.node[47].appl 	NumberofON 	0.72972972972973
scalar RSUExampleScenario.node[47].appl 	NumberofFN 	0
scalar RSUExampleScenario.node[47].veinsmobility 	startTime 	113.3
scalar RSUExampleScenario.node[47].veinsmobility 	totalTime 	336.7
scalar RSUExampleScenario.node[47].veinsmobility 	stopTime 	450
scalar RSUExampleScenario.node[47].veinsmobility 	minSpeed 	0
scalar RSUExampleScenario.node[47].veinsmobility 	maxSpeed 	13.999984184525
scalar RSUExampleScenario.node[47].veinsmobility 	totalDistance 	1528.7876326612
scalar RSUExampleScenario.node[47].veinsmobility 	totalCO2Emission 	549.01628610575
scalar RSUExampleScenario.node[48].appl 	meanClusterNodes 	3.7777777777778
scalar RSUExampleScenario.node[48].appl 	meanClusterHeadUtility 	4.174830247768
scalar RSUExampleScenario.node[48].appl 	NumberofCH 	0.24324324324324
scalar RSUExampleScenario.node[48].appl 	NumberofON 	0.75675675675676
scalar RSUExampleScenario.node[48].appl 	NumberofFN 	0
scalar RSUExampleScenario.node[48].veinsmobility 	startTime 	115.7
scalar RSUExampleScenario.node[48].veinsmobility 	totalTime 	334.3
scalar RSUExampleScenario.node[48].veinsmobility 	stopTime 	450
scalar RSUExampleScenario.node[48].veinsmobility 	minSpeed 	0
scalar RSUExampleScenario.node[48].veinsmobility 	maxSpeed 	13.999609259672
scalar RSUExampleScenario.node[48].veinsmobility 	totalDistance 	1493.8610317197
scalar RSUExampleScenario.node[48].veinsmobility 	totalCO2Emission 	542.23520547921
scalar RSUExampleScenario.node[49].appl 	meanClusterNodes 	2
scalar RSUExampleScenario.node[49].appl 	meanClusterHeadUtility 	3.6066583451158
scalar RSUExampleScenario.node[49].appl 	NumberofCH 	0.27027027027027
scalar RSUExampleScenario.node[49].appl 	NumberofON 	0.64864864864865
scalar RSUExampleScenario.node[49].appl 	NumberofFN 	0.081081081081081
scalar RSUExampleScenario.node[49].veinsmobility 	startTime 	118.1
scalar RSUExampleScenario.node[49].veinsmobility 	totalTime 	331.9
scalar RSUExampleScenario.node[49].veinsmobility 	stopTime 	450
scalar RSUExampleScenario.node[49].veinsmobility 	minSpeed 	0
scalar RSUExampleScenario.node[49].veinsmobility 	maxSpeed 	13.999967608717
scalar RSUExampleScenario.node[49].veinsmobility 	totalDistance 	1458.7131034602
scalar RSUExampleScenario.node[49].veinsmobility 	totalCO2Emission 	536.10848876731
scalar RSUExampleScenario.node[5].appl 	meanClusterNodes 	2.5
scalar RSUExampleScenario.node[5].appl 	meanClusterHeadUtility 	4.1126535057956
scalar RSUExampleScenario.node[5].appl 	NumberofCH 	0.21621621621622
scalar RSUExampleScenario.node[5].appl 	NumberofON 	0.62162162162162
scalar RSUExampleScenario.node[5].appl 	NumberofFN 	0.16216216216216
scalar RSUExampleScenario.node[5].veinsmobility 	startTime 	12.1
scalar RSUExampleScenario.node[5].veinsmobility 	totalTime 	437.9
scalar RSUExampleScenario.node[5].veinsmobility 	stopTime 	450
scalar RSUExampleScenario.node[5].veinsmobility 	minSpeed 	0
scalar RSUExampleScenario.node[5].veinsmobility 	maxSpeed 	13.999975154132
scalar RSUExampleScenario.node[5].veinsmobility 	totalDistance 	2914.7374740737
scalar RSUExampleScenario.node[5].veinsmobility 	totalCO2Emission 	783.14940525467
scalar RSUExampleScenario.node[50].appl 	meanClusterNodes 	3.5
scalar RSUExampleScenario.node[50].appl 	meanClusterHeadUtility 	4.3053595671128
scalar RSUExampleScenario.node[50].appl 	NumberofCH 	0.21621621621622
scalar RSUExampleScenario.node[50].appl 	NumberofON 	0.45945945945946
scalar RSUExampleScenario.node[50].appl 	NumberofFN 	0.32432432432432
scalar RSUExampleScenario.node[50].veinsmobility 	startTime 	120.6
scalar RSUExampleScenario.node[50].veinsmobility 	totalTime 	329.4
scalar RSUExampleScenario.node[50].veinsmobility 	stopTime 	450
scalar RSUExampleScenario.node[50].veinsmobility 	minSpeed 	0
scalar RSUExampleScenario.node[50].veinsmobility 	maxSpeed 	13.999870509631
scalar RSUExampleScenario.node[50].veinsmobility 	totalDistance 	1427.1025370766
scalar RSUExampleScenario.node[50].veinsmobility 	totalCO2Emission 	528.6244933226
scalar RSUExampleScenario.node[51].appl 	meanClusterNodes 	2.6
scalar RSUExampleScenario.node[51].appl 	meanClusterHeadUtility 	3.3628479747039
scalar RSUExampleScenario.node[51].appl 	NumberofCH 	0.27027027027027
scalar RSUExampleScenario.node[51].appl 	NumberofON 	0.72972972972973
scalar RSUExampleScenario.node[51].appl 	NumberofFN 	0
scalar RSUExampleScenario.node[51].veinsmobility 	startTime 	123
scalar RSUExampleScenario.node[51].veinsmobility 	totalTime 	327
scalar RSUExampleScenario.node[51].veinsmobility 	stopTime 	450
scalar RSUExampleScenario.node[51].veinsmobility 	minSpeed 	0
scalar RSUExampleScenario.node[51].veinsmobility 	maxSpeed 	13.999418638388
scalar RSUExampleScenario.node[51].veinsmobility 	totalDistance 	1393.4680152719
scalar RSUExampleScenario.node[51].veinsmobility 	totalCO2Emission 	523.5602974204
scalar RSUExampleScenario.node[52].appl 	meanClusterNodes 	0.75
scalar RSUExampleScenario.node[52].appl 	meanClusterHeadUtility 	3.8880494010158
scalar RSUExampleScenario.node[52].appl 	NumberofCH 	0.21621621621622
scalar RSUExampleScenario.node[52].appl 	NumberofON 	0.54054054054054
scalar RSUExampleScenario.node[52].appl 	NumberofFN 	0.24324324324324
scalar RSUExampleScenario.node[52].veinsmobility 	startTime 	125.4
scalar RSUExampleScenario.node[52].veinsmobility 	totalTime 	324.6
scalar RSUExampleScenario.node[52].veinsmobility 	stopTime 	450
scalar RSUExampleScenario.node[52].veinsmobility 	minSpeed 	0
scalar RSUExampleScenario.node[52].veinsmobility 	maxSpeed 	13.999100774436
scalar RSUExampleScenario.node[52].veinsmobility 	totalDistance 	1360.3348057274
scalar RSUExampleScenario.node[52].veinsmobility 	totalCO2Emission 	519.09724581641
scalar RSUExampleScenario.node[53].appl 	meanClusterNodes 	2.4
scalar RSUExampleScenario.node[53].appl 	meanClusterHeadUtility 	3.0648496466421
scalar RSUExampleScenario.node[53].appl 	NumberofCH 	0.27027027027027
scalar RSUExampleScenario.node[53].appl 	NumberofON 	0.37837837837838
scalar RSUExampleScenario.node[53].appl 	NumberofFN 	0.35135135135135
scalar RSUExampleScenario.node[53].veinsmobility 	startTime 	127.8
scalar RSUExampleScenario.node[53].veinsmobility 	totalTime 	322.2
scalar RSUExampleScenario.node[53].veinsmobility 	stopTime 	450
scalar RSUExampleScenario.node[53].veinsmobility 	minSpeed 	0
scalar RSUExampleScenario.node[53].veinsmobility 	maxSpeed 	13.999958875042
scalar RSUExampleScenario.node[53].veinsmobility 	totalDistance 	1327.1254989854
scalar RSUExampleScenario.node[53].veinsmobility 	totalCO2Emission 	513.08879618788
scalar RSUExampleScenario.node[54].appl 	meanClusterNodes 	2
scalar RSUExampleScenario.node[54].appl 	meanClusterHeadUtility 	3.1316518566716
scalar RSUExampleScenario.node[54].appl 	NumberofCH 	0.27027027027027
scalar RSUExampleScenario.node[54].appl 	NumberofON 	0.72972972972973
scalar RSUExampleScenario.node[54].appl 	NumberofFN 	0
scalar RSUExampleScenario.node[54].veinsmobility 	startTime 	130.2
scalar RSUExampleScenario.node[54].veinsmobility 	totalTime 	319.8
scalar RSUExampleScenario.node[54].veinsmobility 	stopTime 	450
scalar RSUExampleScenario.node[54].veinsmobility 	minSpeed 	0
scalar RSUExampleScenario.node[54].veinsmobility 	maxSpeed 	13.999719680303
scalar RSUExampleScenario.node[54].veinsmobility 	totalDistance 	1293.762550944
scalar RSUExampleScenario.node[54].veinsmobility 	totalCO2Emission 	507.01771203502
scalar RSUExampleScenario.node[55].appl 	meanClusterNodes 	6.75
scalar RSUExampleScenario.node[55].appl 	meanClusterHeadUtility 	4.1340972502127
scalar RSUExampleScenario.node[55].appl 	NumberofCH 	0.21621621621622
scalar RSUExampleScenario.node[55].appl 	NumberofON 	0.72972972972973
scalar RSUExampleScenario.node[55].appl 	NumberofFN 	0.054054054054054
scalar RSUExampleScenario.node[55].veinsmobility 	startTime 	132.6
scalar RSUExampleScenario.node[55].veinsmobility 	totalTime 	317.4
scalar RSUExampleScenario.node[55].veinsmobility 	stopTime 	450
scalar RSUExampleScenario.node[55].veinsmobility 	minSpeed 	0
scalar RSUExampleScenario.node[55].veinsmobility 	maxSpeed 	13.999468219464
scalar RSUExampleScenario.node[55].veinsmobility 	totalDistance 	1258.78396265
scalar RSUExampleScenario.node[55].veinsmobility 	totalCO2Emission 	501.08275995836
scalar RSUExampleScenario.node[56].appl 	meanClusterNodes 	4.4
scalar RSUExampleScenario.node[56].appl 	meanClusterHeadUtility 	3.0647735299196
scalar RSUExampleScenario.node[56].appl 	NumberofCH 	0.27027027027027
scalar RSUExampleScenario.node[56].appl 	NumberofON 	0.59459459459459
scalar RSUExampleScenario.node[56].appl 	NumberofFN 	0.13513513513514
scalar RSUExampleScenario.node[56].veinsmobility 	startTime 	135
scalar RSUExampleScenario.node[56].veinsmobility 	totalTime 	315
scalar RSUExampleScenario.node[56].veinsmobility 	stopTime 	450
scalar RSUExampleScenario.node[56].veinsmobility 	minSpeed 	0
scalar RSUExampleScenario.node[56].veinsmobility 	maxSpeed 	13.999925035255
scalar RSUExampleScenario.node[56].veinsmobility 	totalDistance 	1227.1196582255
scalar RSUExampleScenario.node[56].veinsmobility 	totalCO2Emission 	498.22456420696
scalar RSUExampleScenario.node[57].appl 	meanClusterNodes 	1
scalar RSUExampleScenario.node[57].appl 	meanClusterHeadUtility 	3.4616732120185
scalar RSUExampleScenario.node[57].appl 	NumberofCH 	0.24324324324324
scalar RSUExampleScenario.node[57].appl 	NumberofON 	0.75675675675676
scalar RSUExampleScenario.node[57].appl 	NumberofFN 	0
scalar RSUExampleScenario.node[57].veinsmobility 	startTime 	137.4
scalar RSUExampleScenario.node[57].veinsmobility 	totalTime 	312.6
scalar RSUExampleScenario.node[57].veinsmobility 	stopTime 	450
scalar RSUExampleScenario.node[57].veinsmobility 	minSpeed 	0
scalar RSUExampleScenario.node[57].veinsmobility 	maxSpeed 	13.999777319292
scalar RSUExampleScenario.node[57].veinsmobility 	totalDistance 	1192.0791018379
scalar RSUExampleScenario.node[57].veinsmobility 	totalCO2Emission 	490.47824112544
scalar RSUExampleScenario.node[58].appl 	meanClusterNodes 	3.6
scalar RSUExampleScenario.node[58].appl 	meanClusterHeadUtility 	3.2081767206086
scalar RSUExampleScenario.node[58].appl 	NumberofCH 	0.27027027027027
scalar RSUExampleScenario.node[58].appl 	NumberofON 	0.72972972972973
scalar RSUExampleScenario.node[58].appl 	NumberofFN 	0
scalar RSUExampleScenario.node[58].veinsmobility 	startTime 	139.8
scalar RSUExampleScenario.node[58].veinsmobility 	totalTime 	310.2
scalar RSUExampleScenario.node[58].veinsmobility 	stopTime 	450
scalar RSUExampleScenario.node[58].veinsmobility 	minSpeed 	0
scalar RSUExampleScenario.node[58].veinsmobility 	maxSpeed 	13.999935411664
scalar RSUExampleScenario.node[58].veinsmobility 	totalDistance 	1157.1812049297
scalar RSUExampleScenario.node[58].veinsmobility 	totalCO2Emission 	486.85248421894
scalar RSUExampleScenario.node[59].appl 	meanClusterNodes 	1.3333333333333
scalar RSUExampleScenario.node[59].appl 	meanClusterHeadUtility 	3.4682583358473
scalar RSUExampleScenario.node[59].appl 	NumberofCH 	0.24324324324324
scalar RSUExampleScenario.node[59].appl 	NumberofON 	0.75675675675676
scalar RSUExampleScenario.node[59].appl 	NumberofFN 	0
scalar RSUExampleScenario.node[59].veinsmobility 	startTime 	142.2
scalar RSUExampleScenario.node[59].veinsmobility 	totalTime 	307.8
scalar RSUExampleScenario.node[59].veinsmobility 	stopTime 	450
scalar RSUExampleScenario.node[59].veinsmobility 	minSpeed 	0
scalar RSUExampleScenario.node[59].veinsmobility 	maxSpeed 	13.999616220794
scalar RSUExampleScenario.node[59].veinsmobility 	totalDistance 	1123.9519573737
scalar RSUExampleScenario.node[59].veinsmobility 	totalCO2Emission 	480.77514072145
scalar RSUExampleScenario.node[6].appl 	meanClusterNodes 	2.25
scalar RSUExampleScenario.node[6].appl 	meanClusterHeadUtility 	4.733867514253
scalar RSUExampleScenario.node[6].appl 	NumberofCH 	0.21621621621622
scalar RSUExampleScenario.node[6].appl 	NumberofON 	0.64864864864865
scalar RSUExampleScenario.node[6].appl 	NumberofFN 	0.13513513513514
scalar RSUExampleScenario.node[6].veinsmobility 	startTime 	14.5
scalar RSUExampleScenario.node[6].veinsmobility 	totalTime 	435.5
scalar RSUExampleScenario.node[6].veinsmobility 	stopTime 	450
scalar RSUExampleScenario.node[6].veinsmobility 	minSpeed 	0
scalar RSUExampleScenario.node[6].veinsmobility 	maxSpeed 	13.999995882858
scalar RSUExampleScenario.node[6].veinsmobility 	totalDistance 	2906.3786041337
scalar RSUExampleScenario.node[6].veinsmobility 	totalCO2Emission 	777.10213187355
scalar RSUExampleScenario.node[60].appl 	meanClusterNodes 	1.9
scalar RSUExampleScenario.node[60].appl 	meanClusterHeadUtility 	3.563320789396
scalar RSUExampleScenario.node[60].appl 	NumberofCH 	0.27027027027027
scalar RSUExampleScenario.node[60].appl 	NumberofON 	0.56756756756757
scalar RSUExampleScenario.node[60].appl 	NumberofFN 	0.16216216216216
scalar RSUExampleScenario.node[60].veinsmobility 	startTime 	144.7
scalar RSUExampleScenario.node[60].veinsmobility 	totalTime 	305.3
scalar RSUExampleScenario.node[60].veinsmobility 	stopTime 	450
scalar RSUExampleScenario.node[60].veinsmobility 	minSpeed 	0
scalar RSUExampleScenario.node[60].veinsmobility 	maxSpeed 	13.999778620028
scalar RSUExampleScenario.node[60].veinsmobility 	totalDistance 	1090.4496588731
scalar RSUExampleScenario.node[60].veinsmobility 	totalCO2Emission 	473.80803331527
scalar RSUExampleScenario.node[61].appl 	meanClusterNodes 	1.2
scalar RSUExampleScenario.node[61].appl 	meanClusterHeadUtility 	3.5412487219387
scalar RSUExampleScenario.node[61].appl 	NumberofCH 	0.27027027027027
scalar RSUExampleScenario.node[61].appl 	NumberofON 	0.56756756756757
scalar RSUExampleScenario.node[61].appl 	NumberofFN 	0.16216216216216
scalar RSUExampleScenario.node[61].veinsmobility 	startTime 	147.1
scalar RSUExampleScenario.node[61].veinsmobility 	totalTime 	302.9
scalar RSUExampleScenario.node[61].veinsmobility 	stopTime 	450
scalar RSUExampleScenario.node[61].veinsmobility 	minSpeed 	0
scalar RSUExampleScenario.node[61].veinsmobility 	maxSpeed 	13.999817959084
scalar RSUExampleScenario.node[61].veinsmobility 	totalDistance 	1057.243635828
scalar RSUExampleScenario.node[61].veinsmobility 	totalCO2Emission 	468.14814337219
scalar RSUExampleScenario.node[62].appl 	meanClusterNodes 	3.4
scalar RSUExampleScenario.node[62].appl 	meanClusterHeadUtility 	3.2985594696143
scalar RSUExampleScenario.node[62].appl 	NumberofCH 	0.27027027027027
scalar RSUExampleScenario.node[62].appl 	NumberofON 	0.35135135135135
scalar RSUExampleScenario.node[62].appl 	NumberofFN 	0.37837837837838
scalar RSUExampleScenario.node[62].veinsmobility 	startTime 	149.5
scalar RSUExampleScenario.node[62].veinsmobility 	totalTime 	300.5
scalar RSUExampleScenario.node[62].veinsmobility 	stopTime 	450
scalar RSUExampleScenario.node[62].veinsmobility 	minSpeed 	0
scalar RSUExampleScenario.node[62].veinsmobility 	maxSpeed 	13.999860134614
scalar RSUExampleScenario.node[62].veinsmobility 	totalDistance 	1024.0094969599
scalar RSUExampleScenario.node[62].veinsmobility 	totalCO2Emission 	460.9822993278
scalar RSUExampleScenario.node[63].appl 	meanClusterNodes 	3.2
scalar RSUExampleScenario.node[63].appl 	meanClusterHeadUtility 	3.2821427674788
scalar RSUExampleScenario.node[63].appl 	NumberofCH 	0.27027027027027
scalar RSUExampleScenario.node[63].appl 	NumberofON 	0.67567567567568
scalar RSUExampleScenario.node[63].appl 	NumberofFN 	0.054054054054054
scalar RSUExampleScenario.node[63].veinsmobility 	startTime 	151.9
scalar RSUExampleScenario.node[63].veinsmobility 	totalTime 	298.1
scalar RSUExampleScenario.node[63].veinsmobility 	stopTime 	450
scalar RSUExampleScenario.node[63].veinsmobility 	minSpeed 	0
scalar RSUExampleScenario.node[63].veinsmobility 	maxSpeed 	13.999459927187
scalar RSUExampleScenario.node[63].veinsmobility 	totalDistance 	985.51336725833
scalar RSUExampleScenario.node[63].veinsmobility 	totalCO2Emission 	449.468822987
scalar RSUExampleScenario.node[64].appl 	meanClusterNodes 	1.2
scalar RSUExampleScenario.node[64].appl 	meanClusterHeadUtility 	3.5930606109116
scalar RSUExampleScenario.node[64].appl 	NumberofCH 	0.27027027027027
scalar RSUExampleScenario.node[64].appl 	NumberofON 	0.72972972972973
scalar RSUExampleScenario.node[64].appl 	NumberofFN 	0
scalar RSUExampleScenario.node[64].veinsmobility 	startTime 	154.3
scalar RSUExampleScenario.node[64].veinsmobility 	totalTime 	295.7
scalar RSUExampleScenario.node[64].veinsmobility 	stopTime 	450
scalar RSUExampleScenario.node[64].veinsmobility 	minSpeed 	0
scalar RSUExampleScenario.node[64].veinsmobility 	maxSpeed 	13.99999457407
scalar RSUExampleScenario.node[64].veinsmobility 	totalDistance 	953.58481291369
scalar RSUExampleScenario.node[64].veinsmobility 	totalCO2Emission 	436.25742182382
scalar RSUExampleScenario.node[65].appl 	meanClusterNodes 	1.6
scalar RSUExampleScenario.node[65].appl 	meanClusterHeadUtility 	3.5199195860792
scalar RSUExampleScenario.node[65].appl 	NumberofCH 	0.27027027027027
scalar RSUExampleScenario.node[65].appl 	NumberofON 	0.48648648648649
scalar RSUExampleScenario.node[65].appl 	NumberofFN 	0.24324324324324
scalar RSUExampleScenario.node[65].veinsmobility 	startTime 	156.7
scalar RSUExampleScenario.node[65].veinsmobility 	totalTime 	293.3
scalar RSUExampleScenario.node[65].veinsmobility 	stopTime 	450
scalar RSUExampleScenario.node[65].veinsmobility 	minSpeed 	0
scalar RSUExampleScenario.node[65].veinsmobility 	maxSpeed 	13.999941380299
scalar RSUExampleScenario.node[65].veinsmobility 	totalDistance 	940.41275575798
scalar RSUExampleScenario.node[65].veinsmobility 	totalCO2Emission 	426.7827752477
scalar RSUExampleScenario.node[66].appl 	meanClusterNodes 	1.5
scalar RSUExampleScenario.node[66].appl 	meanClusterHeadUtility 	3.322501330738
scalar RSUExampleScenario.node[66].appl 	NumberofCH 	0.27027027027027
scalar RSUExampleScenario.node[66].appl 	NumberofON 	0.72972972972973
scalar RSUExampleScenario.node[66].appl 	NumberofFN 	0
scalar RSUExampleScenario.node[66].veinsmobility 	startTime 	159.1
scalar RSUExampleScenario.node[66].veinsmobility 	totalTime 	290.9
scalar RSUExampleScenario.node[66].veinsmobility 	stopTime 	450
scalar RSUExampleScenario.node[66].veinsmobility 	minSpeed 	0
scalar RSUExampleScenario.node[66].veinsmobility 	maxSpeed 	13.999863468057
scalar RSUExampleScenario.node[66].veinsmobility 	totalDistance 	928.13066103042
scalar RSUExampleScenario.node[66].veinsmobility 	totalCO2Emission 	424.30278922607
scalar RSUExampleScenario.node[67].appl 	meanClusterNodes 	0.8
scalar RSUExampleScenario.node[67].appl 	meanClusterHeadUtility 	3.366315384853
scalar RSUExampleScenario.node[67].appl 	NumberofCH 	0.27027027027027
scalar RSUExampleScenario.node[67].appl 	NumberofON 	0.67567567567568
scalar RSUExampleScenario.node[67].appl 	NumberofFN 	0.054054054054054
scalar RSUExampleScenario.node[67].veinsmobility 	startTime 	161.5
scalar RSUExampleScenario.node[67].veinsmobility 	totalTime 	288.5
scalar RSUExampleScenario.node[67].veinsmobility 	stopTime 	450
scalar RSUExampleScenario.node[67].veinsmobility 	minSpeed 	0
scalar RSUExampleScenario.node[67].veinsmobility 	maxSpeed 	13.999662265631
scalar RSUExampleScenario.node[67].veinsmobility 	totalDistance 	913.23072921962
scalar RSUExampleScenario.node[67].veinsmobility 	totalCO2Emission 	420.98537457862
scalar RSUExampleScenario.node[68].appl 	meanClusterNodes 	2
scalar RSUExampleScenario.node[68].appl 	meanClusterHeadUtility 	4.5771491118423
scalar RSUExampleScenario.node[68].appl 	NumberofCH 	0.21621621621622
scalar RSUExampleScenario.node[68].appl 	NumberofON 	0.78378378378378
scalar RSUExampleScenario.node[68].appl 	NumberofFN 	0
scalar RSUExampleScenario.node[68].veinsmobility 	startTime 	163.9
scalar RSUExampleScenario.node[68].veinsmobility 	totalTime 	286.1
scalar RSUExampleScenario.node[68].veinsmobility 	stopTime 	450
scalar RSUExampleScenario.node[68].veinsmobility 	minSpeed 	0
scalar RSUExampleScenario.node[68].veinsmobility 	maxSpeed 	13.999949510612
scalar RSUExampleScenario.node[68].veinsmobility 	totalDistance 	893.6227895272
scalar RSUExampleScenario.node[68].veinsmobility 	totalCO2Emission 	418.26767937593
scalar RSUExampleScenario.node[69].appl 	meanClusterNodes 	1.7
scalar RSUExampleScenario.node[69].appl 	meanClusterHeadUtility 	3.2546220279819
scalar RSUExampleScenario.node[69].appl 	NumberofCH 	0.27027027027027
scalar RSUExampleScenario.node[69].appl 	NumberofON 	0.62162162162162
scalar RSUExampleScenario.node[69].appl 	NumberofFN 	0.10810810810811
scalar RSUExampleScenario.node[69].veinsmobility 	startTime 	166.3
scalar RSUExampleScenario.node[69].veinsmobility 	totalTime 	283.7
scalar RSUExampleScenario.node[69].veinsmobility 	stopTime 	450
scalar RSUExampleScenario.node[69].veinsmobility 	minSpeed 	0
scalar RSUExampleScenario.node[69].veinsmobility 	maxSpeed 	13.999273080775
scalar RSUExampleScenario.node[69].veinsmobility 	totalDistance 	859.74642086727
scalar RSUExampleScenario.node[69].veinsmobility 	totalCO2Emission 	412.37966669849
scalar RSUExampleScenario.node[7].appl 	meanClusterNodes 	2
scalar RSUExampleScenario.node[7].appl 	meanClusterHeadUtility 	3.4834178720725
scalar RSUExampleScenario.node[7].appl 	NumberofCH 	0.27027027027027
scalar RSUExampleScenario.node[7].appl 	NumberofON 	0.2972972972973
scalar RSUExampleScenario.node[7].appl 	NumberofFN 	0.43243243243243
scalar RSUExampleScenario.node[7].veinsmobility 	startTime 	16.9
scalar RSUExampleScenario.node[7].veinsmobility 	totalTime 	433.1
scalar RSUExampleScenario.node[7].veinsmobility 	stopTime 	450
scalar RSUExampleScenario.node[7].veinsmobility 	minSpeed 	0
scalar RSUExampleScenario.node[7].veinsmobility 	maxSpeed 	13.999832859922
scalar RSUExampleScenario.node[7].veinsmobility 	totalDistance 	2885.7919482764
scalar RSUExampleScenario.node[7].veinsmobility 	totalCO2Emission 	775.59221003165
scalar RSUExampleScenario.node[70].appl 	meanClusterNodes 	1.4444444444444
scalar RSUExampleScenario.node[70].appl 	meanClusterHeadUtility 	4.1217467345842
scalar RSUExampleScenario.node[70].appl 	NumberofCH 	0.24324324324324
scalar RSUExampleScenario.node[70].appl 	NumberofON 	0.72972972972973
scalar RSUExampleScenario.node[70].appl 	NumberofFN 	0.027027027027027
scalar RSUExampleScenario.node[70].veinsmobility 	startTime 	168.8
scalar RSUExampleScenario.node[70].veinsmobility 	totalTime 	281.2
scalar RSUExampleScenario.node[70].veinsmobility 	stopTime 	450
scalar RSUExampleScenario.node[70].veinsmobility 	minSpeed 	0
scalar RSUExampleScenario.node[70].veinsmobility 	maxSpeed 	13.99993199795
scalar RSUExampleScenario.node[70].veinsmobility 	totalDistance 	826.92906195562
scalar RSUExampleScenario.node[70].veinsmobility 	totalCO2Emission 	407.95554210753
scalar RSUExampleScenario.node[71].appl 	meanClusterNodes 	2.4
scalar RSUExampleScenario.node[71].appl 	meanClusterHeadUtility 	3.437359315711
scalar RSUExampleScenario.node[71].appl 	NumberofCH 	0.27027027027027
scalar RSUExampleScenario.node[71].appl 	NumberofON 	0.48648648648649
scalar RSUExampleScenario.node[71].appl 	NumberofFN 	0.24324324324324
scalar RSUExampleScenario.node[71].veinsmobility 	startTime 	171.2
scalar RSUExampleScenario.node[71].veinsmobility 	totalTime 	278.8
scalar RSUExampleScenario.node[71].veinsmobility 	stopTime 	450
scalar RSUExampleScenario.node[71].veinsmobility 	minSpeed 	0
scalar RSUExampleScenario.node[71].veinsmobility 	maxSpeed 	13.999862889757
scalar RSUExampleScenario.node[71].veinsmobility 	totalDistance 	793.24057111695
scalar RSUExampleScenario.node[71].veinsmobility 	totalCO2Emission 	401.61829732802
scalar RSUExampleScenario.node[72].appl 	meanClusterNodes 	3.2222222222222
scalar RSUExampleScenario.node[72].appl 	meanClusterHeadUtility 	3.6978050162971
scalar RSUExampleScenario.node[72].appl 	NumberofCH 	0.24324324324324
scalar RSUExampleScenario.node[72].appl 	NumberofON 	0.59459459459459
scalar RSUExampleScenario.node[72].appl 	NumberofFN 	0.16216216216216
scalar RSUExampleScenario.node[72].veinsmobility 	startTime 	173.6
scalar RSUExampleScenario.node[72].veinsmobility 	totalTime 	276.4
scalar RSUExampleScenario.node[72].veinsmobility 	stopTime 	450
scalar RSUExampleScenario.node[72].veinsmobility 	minSpeed 	0
scalar RSUExampleScenario.node[72].veinsmobility 	maxSpeed 	13.999791413033
scalar RSUExampleScenario.node[72].veinsmobility 	totalDistance 	757.15157969184
scalar RSUExampleScenario.node[72].veinsmobility 	totalCO2Emission 	395.89220663572
scalar RSUExampleScenario.node[73].appl 	meanClusterNodes 	3.75
scalar RSUExampleScenario.node[73].appl 	meanClusterHeadUtility 	4.5766279301167
scalar RSUExampleScenario.node[73].appl 	NumberofCH 	0.21621621621622
scalar RSUExampleScenario.node[73].appl 	NumberofON 	0.51351351351351
scalar RSUExampleScenario.node[73].appl 	NumberofFN 	0.27027027027027
scalar RSUExampleScenario.node[73].veinsmobility 	startTime 	176
scalar RSUExampleScenario.node[73].veinsmobility 	totalTime 	274
scalar RSUExampleScenario.node[73].veinsmobility 	stopTime 	450
scalar RSUExampleScenario.node[73].veinsmobility 	minSpeed 	0
scalar RSUExampleScenario.node[73].veinsmobility 	maxSpeed 	13.999818963981
scalar RSUExampleScenario.node[73].veinsmobility 	totalDistance 	724.74566411134
scalar RSUExampleScenario.node[73].veinsmobility 	totalCO2Emission 	390.14190241336
scalar RSUExampleScenario.node[74].appl 	meanClusterNodes 	3.3
scalar RSUExampleScenario.node[74].appl 	meanClusterHeadUtility 	3.3907810899427
scalar RSUExampleScenario.node[74].appl 	NumberofCH 	0.27027027027027
scalar RSUExampleScenario.node[74].appl 	NumberofON 	0.7027027027027
scalar RSUExampleScenario.node[74].appl 	NumberofFN 	0.027027027027027
scalar RSUExampleScenario.node[74].veinsmobility 	startTime 	178.4
scalar RSUExampleScenario.node[74].veinsmobility 	totalTime 	271.6
scalar RSUExampleScenario.node[74].veinsmobility 	stopTime 	450
scalar RSUExampleScenario.node[74].veinsmobility 	minSpeed 	0
scalar RSUExampleScenario.node[74].veinsmobility 	maxSpeed 	13.99976127154
scalar RSUExampleScenario.node[74].veinsmobility 	totalDistance 	690.76293999623
scalar RSUExampleScenario.node[74].veinsmobility 	totalCO2Emission 	383.09667179892
scalar RSUExampleScenario.node[75].appl 	meanClusterNodes 	2
scalar RSUExampleScenario.node[75].appl 	meanClusterHeadUtility 	3.2755953846318
scalar RSUExampleScenario.node[75].appl 	NumberofCH 	0.27027027027027
scalar RSUExampleScenario.node[75].appl 	NumberofON 	0.51351351351351
scalar RSUExampleScenario.node[75].appl 	NumberofFN 	0.21621621621622
scalar RSUExampleScenario.node[75].veinsmobility 	startTime 	180.8
scalar RSUExampleScenario.node[75].veinsmobility 	totalTime 	269.2
scalar RSUExampleScenario.node[75].veinsmobility 	stopTime 	450
scalar RSUExampleScenario.node[75].veinsmobility 	minSpeed 	0
scalar RSUExampleScenario.node[75].veinsmobility 	maxSpeed 	13.999238225617
scalar RSUExampleScenario.node[75].veinsmobility 	totalDistance 	656.82923466633
scalar RSUExampleScenario.node[75].veinsmobility 	totalCO2Emission 	379.5764074594
scalar RSUExampleScenario.node[76].appl 	meanClusterNodes 	1.4444444444444
scalar RSUExampleScenario.node[76].appl 	meanClusterHeadUtility 	4.031448524622
scalar RSUExampleScenario.node[76].appl 	NumberofCH 	0.24324324324324
scalar RSUExampleScenario.node[76].appl 	NumberofON 	0.75675675675676
scalar RSUExampleScenario.node[76].appl 	NumberofFN 	0
scalar RSUExampleScenario.node[76].veinsmobility 	startTime 	183.2
scalar RSUExampleScenario.node[76].veinsmobility 	totalTime 	266.8
scalar RSUExampleScenario.node[76].veinsmobility 	stopTime 	450
scalar RSUExampleScenario.node[76].veinsmobility 	minSpeed 	0
scalar RSUExampleScenario.node[76].veinsmobility 	maxSpeed 	13.999386183633
scalar RSUExampleScenario.node[76].veinsmobility 	totalDistance 	624.35027685266
scalar RSUExampleScenario.node[76].veinsmobility 	totalCO2Emission 	375.05440689308
scalar RSUExampleScenario.node[77].appl 	meanClusterNodes 	2.4
scalar RSUExampleScenario.node[77].appl 	meanClusterHeadUtility 	3.6147320744968
scalar RSUExampleScenario.node[77].appl 	NumberofCH 	0.27027027027027
scalar RSUExampleScenario.node[77].appl 	NumberofON 	0.37837837837838
scalar RSUExampleScenario.node[77].appl 	NumberofFN 	0.35135135135135
scalar RSUExampleScenario.node[77].veinsmobility 	startTime 	185.6
scalar RSUExampleScenario.node[77].veinsmobility 	totalTime 	264.4
scalar RSUExampleScenario.node[77].veinsmobility 	stopTime 	450
scalar RSUExampleScenario.node[77].veinsmobility 	minSpeed 	0
scalar RSUExampleScenario.node[77].veinsmobility 	maxSpeed 	13.99962378449
scalar RSUExampleScenario.node[77].veinsmobility 	totalDistance 	590.73628406849
scalar RSUExampleScenario.node[77].veinsmobility 	totalCO2Emission 	367.21799952194
scalar RSUExampleScenario.node[78].appl 	meanClusterNodes 	1.875
scalar RSUExampleScenario.node[78].appl 	meanClusterHeadUtility 	4.3585167885572
scalar RSUExampleScenario.node[78].appl 	NumberofCH 	0.21621621621622
scalar RSUExampleScenario.node[78].appl 	NumberofON 	0.75675675675676
scalar RSUExampleScenario.node[78].appl 	NumberofFN 	0.027027027027027
scalar RSUExampleScenario.node[78].veinsmobility 	startTime 	188
scalar RSUExampleScenario.node[78].veinsmobility 	totalTime 	262
scalar RSUExampleScenario.node[78].veinsmobility 	stopTime 	450
scalar RSUExampleScenario.node[78].veinsmobility 	minSpeed 	0
scalar RSUExampleScenario.node[78].veinsmobility 	maxSpeed 	13.9974237327
scalar RSUExampleScenario.node[78].veinsmobility 	totalDistance 	557.870750288
scalar RSUExampleScenario.node[78].veinsmobility 	totalCO2Emission 	361.54760851377
scalar RSUExampleScenario.node[79].appl 	meanClusterNodes 	2
scalar RSUExampleScenario.node[79].appl 	meanClusterHeadUtility 	2.6030916871233
scalar RSUExampleScenario.node[79].appl 	NumberofCH 	0.32432432432432
scalar RSUExampleScenario.node[79].appl 	NumberofON 	0.62162162162162
scalar RSUExampleScenario.node[79].appl 	NumberofFN 	0.054054054054054
scalar RSUExampleScenario.node[79].veinsmobility 	startTime 	190.4
scalar RSUExampleScenario.node[79].veinsmobility 	totalTime 	259.6
scalar RSUExampleScenario.node[79].veinsmobility 	stopTime 	450
scalar RSUExampleScenario.node[79].veinsmobility 	minSpeed 	0
scalar RSUExampleScenario.node[79].veinsmobility 	maxSpeed 	13.999415674699
scalar RSUExampleScenario.node[79].veinsmobility 	totalDistance 	525.24636384309
scalar RSUExampleScenario.node[79].veinsmobility 	totalCO2Emission 	358.1945099102
scalar RSUExampleScenario.node[8].appl 	meanClusterNodes 	3.2
scalar RSUExampleScenario.node[8].appl 	meanClusterHeadUtility 	3.5898792270585
scalar RSUExampleScenario.node[8].appl 	NumberofCH 	0.27027027027027
scalar RSUExampleScenario.node[8].appl 	NumberofON 	0.32432432432432
scalar RSUExampleScenario.node[8].appl 	NumberofFN 	0.40540540540541
scalar RSUExampleScenario.node[8].veinsmobility 	startTime 	19.3
scalar RSUExampleScenario.node[8].veinsmobility 	totalTime 	430.7
scalar RSUExampleScenario.node[8].veinsmobility 	stopTime 	450
scalar RSUExampleScenario.node[8].veinsmobility 	minSpeed 	0
scalar RSUExampleScenario.node[8].veinsmobility 	maxSpeed 	13.999856659637
scalar RSUExampleScenario.node[8].veinsmobility 	totalDistance 	2865.626044721
scalar RSUExampleScenario.node[8].veinsmobility 	totalCO2Emission 	767.72796309447
scalar RSUExampleScenario.node[80].appl 	meanClusterNodes 	2.4545454545455
scalar RSUExampleScenario.node[80].appl 	meanClusterHeadUtility 	3.2406902713207
scalar RSUExampleScenario.node[80].appl 	NumberofCH 	0.2972972972973
scalar RSUExampleScenario.node[80].appl 	NumberofON 	0.7027027027027
scalar RSUExampleScenario.node[80].appl 	NumberofFN 	0
scalar RSUExampleScenario.node[80].veinsmobility 	startTime 	192.9
scalar RSUExampleScenario.node[80].veinsmobility 	totalTime 	257.1
scalar RSUExampleScenario.node[80].veinsmobility 	stopTime 	450
scalar RSUExampleScenario.node[80].veinsmobility 	minSpeed 	0
scalar RSUExampleScenario.node[80].veinsmobility 	maxSpeed 	13.999433221351
scalar RSUExampleScenario.node[80].veinsmobility 	totalDistance 	491.08421051692
scalar RSUExampleScenario.node[80].veinsmobility 	totalCO2Emission 	350.57803163875
scalar RSUExampleScenario.node[81].appl 	meanClusterNodes 	1.8
scalar RSUExampleScenario.node[81].appl 	meanClusterHeadUtility 	3.28295732865
scalar RSUExampleScenario.node[81].appl 	NumberofCH 	0.27027027027027
scalar RSUExampleScenario.node[81].appl 	NumberofON 	0.48648648648649
scalar RSUExampleScenario.node[81].appl 	NumberofFN 	0.24324324324324
scalar RSUExampleScenario.node[81].veinsmobility 	startTime 	195.3
scalar RSUExampleScenario.node[81].veinsmobility 	totalTime 	254.7
scalar RSUExampleScenario.node[81].veinsmobility 	stopTime 	450
scalar RSUExampleScenario.node[81].veinsmobility 	minSpeed 	0
scalar RSUExampleScenario.node[81].veinsmobility 	maxSpeed 	13.999149369593
scalar RSUExampleScenario.node[81].veinsmobility 	totalDistance 	457.17552323995
scalar RSUExampleScenario.node[81].veinsmobility 	totalCO2Emission 	345.99098774039
scalar RSUExampleScenario.node[82].appl 	meanClusterNodes 	1.5
scalar RSUExampleScenario.node[82].appl 	meanClusterHeadUtility 	3.7861271069881
scalar RSUExampleScenario.node[82].appl 	NumberofCH 	0.27027027027027
scalar RSUExampleScenario.node[82].appl 	NumberofON 	0.72972972972973
scalar RSUExampleScenario.node[82].appl 	NumberofFN 	0
scalar RSUExampleScenario.node[82].veinsmobility 	startTime 	197.7
scalar RSUExampleScenario.node[82].veinsmobility 	totalTime 	252.3
scalar RSUExampleScenario.node[82].veinsmobility 	stopTime 	450
scalar RSUExampleScenario.node[82].veinsmobility 	minSpeed 	0
scalar RSUExampleScenario.node[82].veinsmobility 	maxSpeed 	13.99904189328
scalar RSUExampleScenario.node[82].veinsmobility 	totalDistance 	425.34327390627
scalar RSUExampleScenario.node[82].veinsmobility 	totalCO2Emission 	340.58557904505
scalar RSUExampleScenario.node[83].appl 	meanClusterNodes 	4.4
scalar RSUExampleScenario.node[83].appl 	meanClusterHeadUtility 	3.8430515056376
scalar RSUExampleScenario.node[83].appl 	NumberofCH 	0.27027027027027
scalar RSUExampleScenario.node[83].appl 	NumberofON 	0.67567567567568
scalar RSUExampleScenario.node[83].appl 	NumberofFN 	0.054054054054054
scalar RSUExampleScenario.node[83].veinsmobility 	startTime 	200.1
scalar RSUExampleScenario.node[83].veinsmobility 	totalTime 	249.9
scalar RSUExampleScenario.node[83].veinsmobility 	stopTime 	450
scalar RSUExampleScenario.node[83].veinsmobility 	minSpeed 	0
scalar RSUExampleScenario.node[83].veinsmobility 	maxSpeed 	13.998699238366
scalar RSUExampleScenario.node[83].veinsmobility 	totalDistance 	389.88843846353
scalar RSUExampleScenario.node[83].veinsmobility 	totalCO2Emission 	334.31299467191
scalar RSUExampleScenario.node[84].appl 	meanClusterNodes 	3.1
scalar RSUExampleScenario.node[84].appl 	meanClusterHeadUtility 	4.1261221072306
scalar RSUExampleScenario.node[84].appl 	NumberofCH 	0.27027027027027
scalar RSUExampleScenario.node[84].appl 	NumberofON 	0.72972972972973
scalar RSUExampleScenario.node[84].appl 	NumberofFN 	0
scalar RSUExampleScenario.node[84].veinsmobility 	startTime 	202.5
scalar RSUExampleScenario.node[84].veinsmobility 	totalTime 	247.5
scalar RSUExampleScenario.node[84].veinsmobility 	stopTime 	450
scalar RSUExampleScenario.node[84].veinsmobility 	minSpeed 	0
scalar RSUExampleScenario.node[84].veinsmobility 	maxSpeed 	13.998866599763
scalar RSUExampleScenario.node[84].veinsmobility 	totalDistance 	356.0660581125
scalar RSUExampleScenario.node[84].veinsmobility 	totalCO2Emission 	327.63800759352
scalar RSUExampleScenario.node[85].appl 	meanClusterNodes 	1.2222222222222
scalar RSUExampleScenario.node[85].appl 	meanClusterHeadUtility 	3.5459986236566
scalar RSUExampleScenario.node[85].appl 	NumberofCH 	0.24324324324324
scalar RSUExampleScenario.node[85].appl 	NumberofON 	0.75675675675676
scalar RSUExampleScenario.node[85].appl 	NumberofFN 	0
scalar RSUExampleScenario.node[85].veinsmobility 	startTime 	204.9
scalar RSUExampleScenario.node[85].veinsmobility 	totalTime 	245.1
scalar RSUExampleScenario.node[85].veinsmobility 	stopTime 	450
scalar RSUExampleScenario.node[85].veinsmobility 	minSpeed 	0
scalar RSUExampleScenario.node[85].veinsmobility 	maxSpeed 	13.997559087521
scalar RSUExampleScenario.node[85].veinsmobility 	totalDistance 	322.95783664768
scalar RSUExampleScenario.node[85].veinsmobility 	totalCO2Emission 	322.71854241493
scalar RSUExampleScenario.node[86].appl 	meanClusterNodes 	2.5714285714286
scalar RSUExampleScenario.node[86].appl 	meanClusterHeadUtility 	5.0539703815206
scalar RSUExampleScenario.node[86].appl 	NumberofCH 	0.18918918918919
scalar RSUExampleScenario.node[86].appl 	NumberofON 	0.75675675675676
scalar RSUExampleScenario.node[86].appl 	NumberofFN 	0.054054054054054
scalar RSUExampleScenario.node[86].veinsmobility 	startTime 	207.3
scalar RSUExampleScenario.node[86].veinsmobility 	totalTime 	242.7
scalar RSUExampleScenario.node[86].veinsmobility 	stopTime 	450
scalar RSUExampleScenario.node[86].veinsmobility 	minSpeed 	0
scalar RSUExampleScenario.node[86].veinsmobility 	maxSpeed 	13.868788322501
scalar RSUExampleScenario.node[86].veinsmobility 	totalDistance 	287.40217759998
scalar RSUExampleScenario.node[86].veinsmobility 	totalCO2Emission 	315.83979785951
scalar RSUExampleScenario.node[87].appl 	meanClusterNodes 	2
scalar RSUExampleScenario.node[87].appl 	meanClusterHeadUtility 	3.6072262023375
scalar RSUExampleScenario.node[87].appl 	NumberofCH 	0.27027027027027
scalar RSUExampleScenario.node[87].appl 	NumberofON 	0.67567567567568
scalar RSUExampleScenario.node[87].appl 	NumberofFN 	0.054054054054054
scalar RSUExampleScenario.node[87].veinsmobility 	startTime 	209.7
scalar RSUExampleScenario.node[87].veinsmobility 	totalTime 	240.3
scalar RSUExampleScenario.node[87].veinsmobility 	stopTime 	450
scalar RSUExampleScenario.node[87].veinsmobility 	minSpeed 	0
scalar RSUExampleScenario.node[87].veinsmobility 	maxSpeed 	13.798439638202
scalar RSUExampleScenario.node[87].veinsmobility 	totalDistance 	249.33541532815
scalar RSUExampleScenario.node[87].veinsmobility 	totalCO2Emission 	299.2692923471
scalar RSUExampleScenario.node[88].appl 	meanClusterNodes 	1.6
scalar RSUExampleScenario.node[88].appl 	meanClusterHeadUtility 	3.9291791529253
scalar RSUExampleScenario.node[88].appl 	NumberofCH 	0.27027027027027
scalar RSUExampleScenario.node[88].appl 	NumberofON 	0.56756756756757
scalar RSUExampleScenario.node[88].appl 	NumberofFN 	0.16216216216216
scalar RSUExampleScenario.node[88].veinsmobility 	startTime 	212.1
scalar RSUExampleScenario.node[88].veinsmobility 	totalTime 	237.9
scalar RSUExampleScenario.node[88].veinsmobility 	stopTime 	450
scalar RSUExampleScenario.node[88].veinsmobility 	minSpeed 	0
scalar RSUExampleScenario.node[88].veinsmobility 	maxSpeed 	13.733081988105
scalar RSUExampleScenario.node[88].veinsmobility 	totalDistance 	226.11051396939
scalar RSUExampleScenario.node[88].veinsmobility 	totalCO2Emission 	287.22569353122
scalar RSUExampleScenario.node[89].appl 	meanClusterNodes 	1.2
scalar RSUExampleScenario.node[89].appl 	meanClusterHeadUtility 	3.6682612959327
scalar RSUExampleScenario.node[89].appl 	NumberofCH 	0.27027027027027
scalar RSUExampleScenario.node[89].appl 	NumberofON 	0.7027027027027
scalar RSUExampleScenario.node[89].appl 	NumberofFN 	0.027027027027027
scalar RSUExampleScenario.node[89].veinsmobility 	startTime 	214.5
scalar RSUExampleScenario.node[89].veinsmobility 	totalTime 	235.5
scalar RSUExampleScenario.node[89].veinsmobility 	stopTime 	450
scalar RSUExampleScenario.node[89].veinsmobility 	minSpeed 	0
scalar RSUExampleScenario.node[89].veinsmobility 	maxSpeed 	13.88052983705
scalar RSUExampleScenario.node[89].veinsmobility 	totalDistance 	215.28838078999
scalar RSUExampleScenario.node[89].veinsmobility 	totalCO2Emission 	283.2099281972
scalar RSUExampleScenario.node[9].appl 	meanClusterNodes 	0.8
scalar RSUExampleScenario.node[9].appl 	meanClusterHeadUtility 	3.6634506833201
scalar RSUExampleScenario.node[9].appl 	NumberofCH 	0.27027027027027
scalar RSUExampleScenario.node[9].appl 	NumberofON 	0.62162162162162
scalar RSUExampleScenario.node[9].appl 	NumberofFN 	0.10810810810811
scalar RSUExampleScenario.node[9].veinsmobility 	startTime 	21.7
scalar RSUExampleScenario.node[9].veinsmobility 	totalTime 	428.3
scalar RSUExampleScenario.node[9].veinsmobility 	stopTime 	450
scalar RSUExampleScenario.node[9].veinsmobility 	minSpeed 	0
scalar RSUExampleScenario.node[9].veinsmobility 	maxSpeed 	13.999935680262
scalar RSUExampleScenario.node[9].veinsmobility 	totalDistance 	2824.0661552853
scalar RSUExampleScenario.node[9].veinsmobility 	totalCO2Emission 	764.66948319518
scalar RSUExampleScenario.node[90].appl 	meanClusterNodes 	1.4285714285714
scalar RSUExampleScenario.node[90].appl 	meanClusterHeadUtility 	5.1579853667039
scalar RSUExampleScenario.node[90].appl 	NumberofCH 	0.18918918918919
scalar RSUExampleScenario.node[90].appl 	NumberofON 	0.7027027027027
scalar RSUExampleScenario.node[90].appl 	NumberofFN 	0.10810810810811
scalar RSUExampleScenario.node[90].veinsmobility 	startTime 	217
scalar RSUExampleScenario.node[90].veinsmobility 	totalTime 	233
scalar RSUExampleScenario.node[90].veinsmobility 	stopTime 	450
scalar RSUExampleScenario.node[90].veinsmobility 	minSpeed 	0
scalar RSUExampleScenario.node[90].veinsmobility 	maxSpeed 	13.875158480152
scalar RSUExampleScenario.node[90].veinsmobility 	totalDistance 	202.05482783608
scalar RSUExampleScenario.node[90].veinsmobility 	totalCO2Emission 	279.9075277076
scalar RSUExampleScenario.node[91].appl 	meanClusterNodes 	3.7
scalar RSUExampleScenario.node[91].appl 	meanClusterHeadUtility 	3.6831405259258
scalar RSUExampleScenario.node[91].appl 	NumberofCH 	0.27027027027027
scalar RSUExampleScenario.node[91].appl 	NumberofON 	0.37837837837838
scalar RSUExampleScenario.node[91].appl 	NumberofFN 	0.35135135135135
scalar RSUExampleScenario.node[91].veinsmobility 	startTime 	219.4
scalar RSUExampleScenario.node[91].veinsmobility 	totalTime 	230.6
scalar RSUExampleScenario.node[91].veinsmobility 	stopTime 	450
scalar RSUExampleScenario.node[91].veinsmobility 	minSpeed 	0
scalar RSUExampleScenario.node[91].veinsmobility 	maxSpeed 	13.860550540574
scalar RSUExampleScenario.node[91].veinsmobility 	totalDistance 	185.22273907735
scalar RSUExampleScenario.node[91].veinsmobility 	totalCO2Emission 	277.64050355425
scalar RSUExampleScenario.node[92].appl 	meanClusterNodes 	2.6666666666667
scalar RSUExampleScenario.node[92].appl 	meanClusterHeadUtility 	3.8373443207791
scalar RSUExampleScenario.node[92].appl 	NumberofCH 	0.24324324324324
scalar RSUExampleScenario.node[92].appl 	NumberofON 	0.56756756756757
scalar RSUExampleScenario.node[92].appl 	NumberofFN 	0.18918918918919
scalar RSUExampleScenario.node[92].veinsmobility 	startTime 	221.8
scalar RSUExampleScenario.node[92].veinsmobility 	totalTime 	228.2
scalar RSUExampleScenario.node[92].veinsmobility 	stopTime 	450
scalar RSUExampleScenario.node[92].veinsmobility 	minSpeed 	0
scalar RSUExampleScenario.node[92].veinsmobility 	maxSpeed 	13.882802158433
scalar RSUExampleScenario.node[92].veinsmobility 	totalDistance 	150.75026066419
scalar RSUExampleScenario.node[92].veinsmobility 	totalCO2Emission 	264.05533482819
scalar RSUExampleScenario.node[93].appl 	meanClusterNodes 	0.6
scalar RSUExampleScenario.node[93].appl 	meanClusterHeadUtility 	3.8539508545396
scalar RSUExampleScenario.node[93].appl 	NumberofCH 	0.27027027027027
scalar RSUExampleScenario.node[93].appl 	NumberofON 	0.56756756756757
scalar RSUExampleScenario.node[93].appl 	NumberofFN 	0.16216216216216
scalar RSUExampleScenario.node[93].veinsmobility 	startTime 	224.2
scalar RSUExampleScenario.node[93].veinsmobility 	totalTime 	225.8
scalar RSUExampleScenario.node[93].veinsmobility 	stopTime 	450
scalar RSUExampleScenario.node[93].veinsmobility 	minSpeed 	0
scalar RSUExampleScenario.node[93].veinsmobility 	maxSpeed 	13.763370242027
scalar RSUExampleScenario.node[93].veinsmobility 	totalDistance 	123.69864158583
scalar RSUExampleScenario.node[93].veinsmobility 	totalCO2Emission 	251.39277140141
scalar RSUExampleScenario.node[94].appl 	meanClusterNodes 	1.4444444444444
scalar RSUExampleScenario.node[94].appl 	meanClusterHeadUtility 	3.7889769723061
scalar RSUExampleScenario.node[94].appl 	NumberofCH 	0.24324324324324
scalar RSUExampleScenario.node[94].appl 	NumberofON 	0.75675675675676
scalar RSUExampleScenario.node[94].appl 	NumberofFN 	0
scalar RSUExampleScenario.node[94].veinsmobility 	startTime 	226.6
scalar RSUExampleScenario.node[94].veinsmobility 	totalTime 	223.4
scalar RSUExampleScenario.node[94].veinsmobility 	stopTime 	450
scalar RSUExampleScenario.node[94].veinsmobility 	minSpeed 	0
scalar RSUExampleScenario.node[94].veinsmobility 	maxSpeed 	13.821051502998
scalar RSUExampleScenario.node[94].veinsmobility 	totalDistance 	112.24208766823
scalar RSUExampleScenario.node[94].veinsmobility 	totalCO2Emission 	245.88896346603
scalar RSUExampleScenario.node[95].appl 	meanClusterNodes 	1
scalar RSUExampleScenario.node[95].appl 	meanClusterHeadUtility 	4.0394082330433
scalar RSUExampleScenario.node[95].appl 	NumberofCH 	0.27027027027027
scalar RSUExampleScenario.node[95].appl 	NumberofON 	0.2972972972973
scalar RSUExampleScenario.node[95].appl 	NumberofFN 	0.43243243243243
scalar RSUExampleScenario.node[95].veinsmobility 	startTime 	229
scalar RSUExampleScenario.node[95].veinsmobility 	totalTime 	221
scalar RSUExampleScenario.node[95].veinsmobility 	stopTime 	450
scalar RSUExampleScenario.node[95].veinsmobility 	minSpeed 	0
scalar RSUExampleScenario.node[95].veinsmobility 	maxSpeed 	13.828314072678
scalar RSUExampleScenario.node[95].veinsmobility 	totalDistance 	99.237315336924
scalar RSUExampleScenario.node[95].veinsmobility 	totalCO2Emission 	242.59233941539
scalar RSUExampleScenario.node[96].appl 	meanClusterNodes 	0.36363636363636
scalar RSUExampleScenario.node[96].appl 	meanClusterHeadUtility 	3.7998885420233
scalar RSUExampleScenario.node[96].appl 	NumberofCH 	0.2972972972973
scalar RSUExampleScenario.node[96].appl 	NumberofON 	0.67567567567568
scalar RSUExampleScenario.node[96].appl 	NumberofFN 	0.027027027027027
scalar RSUExampleScenario.node[96].veinsmobility 	startTime 	231.4
scalar RSUExampleScenario.node[96].veinsmobility 	totalTime 	218.6
scalar RSUExampleScenario.node[96].veinsmobility 	stopTime 	450
scalar RSUExampleScenario.node[96].veinsmobility 	minSpeed 	0
scalar RSUExampleScenario.node[96].veinsmobility 	maxSpeed 	13.837893581686
scalar RSUExampleScenario.node[96].veinsmobility 	totalDistance 	83.096469330441
scalar RSUExampleScenario.node[96].veinsmobility 	totalCO2Emission 	239.92781041228
scalar RSUExampleScenario.node[97].appl 	meanClusterNodes 	1.9
scalar RSUExampleScenario.node[97].appl 	meanClusterHeadUtility 	4.2156248245623
scalar RSUExampleScenario.node[97].appl 	NumberofCH 	0.27027027027027
scalar RSUExampleScenario.node[97].appl 	NumberofON 	0.67567567567568
scalar RSUExampleScenario.node[97].appl 	NumberofFN 	0.054054054054054
scalar RSUExampleScenario.node[97].veinsmobility 	startTime 	233.8
scalar RSUExampleScenario.node[97].veinsmobility 	totalTime 	216.2
scalar RSUExampleScenario.node[97].veinsmobility 	stopTime 	450
scalar RSUExampleScenario.node[97].veinsmobility 	minSpeed 	0
scalar RSUExampleScenario.node[97].veinsmobility 	maxSpeed 	12.326868467148
scalar RSUExampleScenario.node[97].veinsmobility 	totalDistance 	56.61630165866
scalar RSUExampleScenario.node[97].veinsmobility 	totalCO2Emission 	231.93858841733
scalar RSUExampleScenario.node[98].appl 	meanClusterNodes 	3.5
scalar RSUExampleScenario.node[98].appl 	meanClusterHeadUtility 	3.6484402540545
scalar RSUExampleScenario.node[98].appl 	NumberofCH 	0.27027027027027
scalar RSUExampleScenario.node[98].appl 	NumberofON 	0.64864864864865
scalar RSUExampleScenario.node[98].appl 	NumberofFN 	0.081081081081081
scalar RSUExampleScenario.node[98].veinsmobility 	startTime 	236.2
scalar RSUExampleScenario.node[98].veinsmobility 	totalTime 	213.8
scalar RSUExampleScenario.node[98].veinsmobility 	stopTime 	450
scalar RSUExampleScenario.node[98].veinsmobility 	minSpeed 	0
scalar RSUExampleScenario.node[98].veinsmobility 	maxSpeed 	7.8537476702354
scalar RSUExampleScenario.node[98].veinsmobility 	totalDistance 	22.268971024408
scalar RSUExampleScenario.node[98].veinsmobility 	totalCO2Emission 	216.86298502374
scalar RSUExampleScenario.node[99].appl 	meanClusterNodes 	2.7272727272727
scalar RSUExampleScenario.node[99].appl 	meanClusterHeadUtility 	3.205358559291
scalar RSUExampleScenario.node[99].appl 	NumberofCH 	0.2972972972973
scalar RSUExampleScenario.node[99].appl 	NumberofON 	0.56756756756757
scalar RSUExampleScenario.node[99].appl 	NumberofFN 	0.13513513513514
scalar RSUExampleScenario.node[99].veinsmobility 	startTime 	238.6
scalar RSUExampleScenario.node[99].veinsmobility 	totalTime 	211.4
scalar RSUExampleScenario.node[99].veinsmobility 	stopTime 	450
scalar RSUExampleScenario.node[99].veinsmobility 	minSpeed 	0
scalar RSUExampleScenario.node[99].veinsmobility 	maxSpeed 	3.143723078394
scalar RSUExampleScenario.node[99].veinsmobility 	totalDistance 	3.4063563669913
scalar RSUExampleScenario.node[99].veinsmobility 	totalCO2Emission 	207.15493217284
