version 2
run statisticRVV-225-20150326-08:34:03-1360
attr c 5
attr configname statisticRVV
attr datetime 20150326-08:34:03
attr experiment statisticRVV
attr inifile omnetpp.ini
attr iterationvars "$sc=\"erlangen-medium.launchd.xml\", $p=1/5, $c=5"
attr iterationvars2 "$sc=\"erlangen-medium.launchd.xml\", $p=1/5, $c=5, $repetition=5"
attr measurement "$sc=\"erlangen-medium.launchd.xml\", $p=1/5, $c=5"
attr network RSUExampleScenario
attr p 1/5
attr processid 1360
attr repetition 5
attr replication #5
attr resultdir results
attr runnumber 225
attr sc "\"erlangen-medium.launchd.xml\""
attr seedset 225

scalar . 	c 	5
scalar RSUExampleScenario.node[0].veinsmobility 	startTime 	0.1
scalar RSUExampleScenario.node[0].veinsmobility 	totalTime 	264.7
scalar RSUExampleScenario.node[0].veinsmobility 	stopTime 	264.9
scalar RSUExampleScenario.node[0].veinsmobility 	minSpeed 	0.25620184622542
scalar RSUExampleScenario.node[0].veinsmobility 	maxSpeed 	13.999999837643
scalar RSUExampleScenario.node[0].veinsmobility 	totalDistance 	3409.7134559016
scalar RSUExampleScenario.node[0].veinsmobility 	totalCO2Emission 	697.9038418492
scalar RSUExampleScenario.node[1].veinsmobility 	startTime 	3.1
scalar RSUExampleScenario.node[1].veinsmobility 	totalTime 	265.7
scalar RSUExampleScenario.node[1].veinsmobility 	stopTime 	268.9
scalar RSUExampleScenario.node[1].veinsmobility 	minSpeed 	0.25874470287468
scalar RSUExampleScenario.node[1].veinsmobility 	maxSpeed 	13.999993894009
scalar RSUExampleScenario.node[1].veinsmobility 	totalDistance 	3409.2622001228
scalar RSUExampleScenario.node[1].veinsmobility 	totalCO2Emission 	694.00089699705
scalar RSUExampleScenario.node[2].veinsmobility 	startTime 	6.1
scalar RSUExampleScenario.node[2].veinsmobility 	totalTime 	266.2
scalar RSUExampleScenario.node[2].veinsmobility 	stopTime 	272.4
scalar RSUExampleScenario.node[2].veinsmobility 	minSpeed 	0.25330693903496
scalar RSUExampleScenario.node[2].veinsmobility 	maxSpeed 	13.999972726398
scalar RSUExampleScenario.node[2].veinsmobility 	totalDistance 	3409.3765878256
scalar RSUExampleScenario.node[2].veinsmobility 	totalCO2Emission 	692.57249502279
scalar RSUExampleScenario.node[3].veinsmobility 	startTime 	9.1
scalar RSUExampleScenario.node[3].veinsmobility 	totalTime 	266.7
scalar RSUExampleScenario.node[3].veinsmobility 	stopTime 	275.9
scalar RSUExampleScenario.node[3].veinsmobility 	minSpeed 	0.25004511794657
scalar RSUExampleScenario.node[3].veinsmobility 	maxSpeed 	13.999912129925
scalar RSUExampleScenario.node[3].veinsmobility 	totalDistance 	3409.4315680857
scalar RSUExampleScenario.node[3].veinsmobility 	totalCO2Emission 	694.4479223292
scalar RSUExampleScenario.node[4].veinsmobility 	startTime 	12.1
scalar RSUExampleScenario.node[4].veinsmobility 	totalTime 	266.9
scalar RSUExampleScenario.node[4].veinsmobility 	stopTime 	279.1
scalar RSUExampleScenario.node[4].veinsmobility 	minSpeed 	0.25415735736955
scalar RSUExampleScenario.node[4].veinsmobility 	maxSpeed 	13.999863665465
scalar RSUExampleScenario.node[4].veinsmobility 	totalDistance 	3413.418250432
scalar RSUExampleScenario.node[4].veinsmobility 	totalCO2Emission 	693.7875882769
scalar RSUExampleScenario.node[5].veinsmobility 	startTime 	15.1
scalar RSUExampleScenario.node[5].veinsmobility 	totalTime 	267
scalar RSUExampleScenario.node[5].veinsmobility 	stopTime 	282.2
scalar RSUExampleScenario.node[5].veinsmobility 	minSpeed 	0.25889016289217
scalar RSUExampleScenario.node[5].veinsmobility 	maxSpeed 	13.999960674171
scalar RSUExampleScenario.node[5].veinsmobility 	totalDistance 	3409.4040956377
scalar RSUExampleScenario.node[5].veinsmobility 	totalCO2Emission 	696.40173183308
scalar RSUExampleScenario.node[6].veinsmobility 	startTime 	18.1
scalar RSUExampleScenario.node[6].veinsmobility 	totalTime 	267.1
scalar RSUExampleScenario.node[6].veinsmobility 	stopTime 	285.3
scalar RSUExampleScenario.node[6].veinsmobility 	minSpeed 	0.2561646407079
scalar RSUExampleScenario.node[6].veinsmobility 	maxSpeed 	13.999858703997
scalar RSUExampleScenario.node[6].veinsmobility 	totalDistance 	3413.5254050857
scalar RSUExampleScenario.node[6].veinsmobility 	totalCO2Emission 	690.74501611709
scalar RSUExampleScenario.node[7].veinsmobility 	startTime 	21.1
scalar RSUExampleScenario.node[7].veinsmobility 	totalTime 	267.1
scalar RSUExampleScenario.node[7].veinsmobility 	stopTime 	288.3
scalar RSUExampleScenario.node[7].veinsmobility 	minSpeed 	0.25243320414051
scalar RSUExampleScenario.node[7].veinsmobility 	maxSpeed 	13.999745963477
scalar RSUExampleScenario.node[7].veinsmobility 	totalDistance 	3409.7110905865
scalar RSUExampleScenario.node[7].veinsmobility 	totalCO2Emission 	692.08774540126
scalar RSUExampleScenario.node[8].veinsmobility 	startTime 	24.1
scalar RSUExampleScenario.node[8].veinsmobility 	totalTime 	267.1
scalar RSUExampleScenario.node[8].veinsmobility 	stopTime 	291.3
scalar RSUExampleScenario.node[8].veinsmobility 	minSpeed 	0.25465831466159
scalar RSUExampleScenario.node[8].veinsmobility 	maxSpeed 	13.999995504115
scalar RSUExampleScenario.node[8].veinsmobility 	totalDistance 	3413.5335787194
scalar RSUExampleScenario.node[8].veinsmobility 	totalCO2Emission 	690.14952596905
scalar RSUExampleScenario.node[9].veinsmobility 	startTime 	27.1
scalar RSUExampleScenario.node[9].veinsmobility 	totalTime 	267.1
scalar RSUExampleScenario.node[9].veinsmobility 	stopTime 	294.3
scalar RSUExampleScenario.node[9].veinsmobility 	minSpeed 	0.25445461623464
scalar RSUExampleScenario.node[9].veinsmobility 	maxSpeed 	13.999876547912
scalar RSUExampleScenario.node[9].veinsmobility 	totalDistance 	3409.6848450139
scalar RSUExampleScenario.node[9].veinsmobility 	totalCO2Emission 	690.19541725774
scalar RSUExampleScenario.node[10].veinsmobility 	startTime 	30.1
scalar RSUExampleScenario.node[10].veinsmobility 	totalTime 	267.1
scalar RSUExampleScenario.node[10].veinsmobility 	stopTime 	297.3
scalar RSUExampleScenario.node[10].veinsmobility 	minSpeed 	0.24844747511274
scalar RSUExampleScenario.node[10].veinsmobility 	maxSpeed 	13.999974802388
scalar RSUExampleScenario.node[10].veinsmobility 	totalDistance 	3413.9624766121
scalar RSUExampleScenario.node[10].veinsmobility 	totalCO2Emission 	691.63081776908
scalar RSUExampleScenario.node[11].veinsmobility 	startTime 	33.1
scalar RSUExampleScenario.node[11].veinsmobility 	totalTime 	267.2
scalar RSUExampleScenario.node[11].veinsmobility 	stopTime 	300.4
scalar RSUExampleScenario.node[11].veinsmobility 	minSpeed 	0.24966947186855
scalar RSUExampleScenario.node[11].veinsmobility 	maxSpeed 	13.999980376631
scalar RSUExampleScenario.node[11].veinsmobility 	totalDistance 	3410.1384096346
scalar RSUExampleScenario.node[11].veinsmobility 	totalCO2Emission 	693.4659048752
scalar RSUExampleScenario.node[12].veinsmobility 	startTime 	36.1
scalar RSUExampleScenario.node[12].veinsmobility 	totalTime 	267.3
scalar RSUExampleScenario.node[12].veinsmobility 	stopTime 	303.5
scalar RSUExampleScenario.node[12].veinsmobility 	minSpeed 	0.2501121092455
scalar RSUExampleScenario.node[12].veinsmobility 	maxSpeed 	13.999965670567
scalar RSUExampleScenario.node[12].veinsmobility 	totalDistance 	3414.2008766886
scalar RSUExampleScenario.node[12].veinsmobility 	totalCO2Emission 	690.01417392668
scalar RSUExampleScenario.node[13].veinsmobility 	startTime 	39.1
scalar RSUExampleScenario.node[13].veinsmobility 	totalTime 	267.3
scalar RSUExampleScenario.node[13].veinsmobility 	stopTime 	306.5
scalar RSUExampleScenario.node[13].veinsmobility 	minSpeed 	0.24907038275572
scalar RSUExampleScenario.node[13].veinsmobility 	maxSpeed 	13.999967169196
scalar RSUExampleScenario.node[13].veinsmobility 	totalDistance 	3409.4804072857
scalar RSUExampleScenario.node[13].veinsmobility 	totalCO2Emission 	689.28564199915
scalar RSUExampleScenario.node[14].veinsmobility 	startTime 	42.1
scalar RSUExampleScenario.node[14].veinsmobility 	totalTime 	267.3
scalar RSUExampleScenario.node[14].veinsmobility 	stopTime 	309.5
scalar RSUExampleScenario.node[14].veinsmobility 	minSpeed 	0.25347794609331
scalar RSUExampleScenario.node[14].veinsmobility 	maxSpeed 	13.999998758619
scalar RSUExampleScenario.node[14].veinsmobility 	totalDistance 	3413.4858537442
scalar RSUExampleScenario.node[14].veinsmobility 	totalCO2Emission 	691.82059279849
scalar RSUExampleScenario.node[15].veinsmobility 	startTime 	45.1
scalar RSUExampleScenario.node[15].veinsmobility 	totalTime 	267.3
scalar RSUExampleScenario.node[15].veinsmobility 	stopTime 	312.5
scalar RSUExampleScenario.node[15].veinsmobility 	minSpeed 	0.24795403702045
scalar RSUExampleScenario.node[15].veinsmobility 	maxSpeed 	13.999960542838
scalar RSUExampleScenario.node[15].veinsmobility 	totalDistance 	3409.252064569
scalar RSUExampleScenario.node[15].veinsmobility 	totalCO2Emission 	692.16673562432
scalar RSUExampleScenario.node[16].veinsmobility 	startTime 	48.1
scalar RSUExampleScenario.node[16].veinsmobility 	totalTime 	267.3
scalar RSUExampleScenario.node[16].veinsmobility 	stopTime 	315.5
scalar RSUExampleScenario.node[16].veinsmobility 	minSpeed 	0.24771144277859
scalar RSUExampleScenario.node[16].veinsmobility 	maxSpeed 	13.999995952535
scalar RSUExampleScenario.node[16].veinsmobility 	totalDistance 	3413.5906724464
scalar RSUExampleScenario.node[16].veinsmobility 	totalCO2Emission 	692.68485850039
scalar RSUExampleScenario.node[17].veinsmobility 	startTime 	51.1
scalar RSUExampleScenario.node[17].veinsmobility 	totalTime 	267.3
scalar RSUExampleScenario.node[17].veinsmobility 	stopTime 	318.5
scalar RSUExampleScenario.node[17].veinsmobility 	minSpeed 	0.25008256705175
scalar RSUExampleScenario.node[17].veinsmobility 	maxSpeed 	13.999744585799
scalar RSUExampleScenario.node[17].veinsmobility 	totalDistance 	3409.6417624567
scalar RSUExampleScenario.node[17].veinsmobility 	totalCO2Emission 	689.60340913494
scalar RSUExampleScenario.node[18].veinsmobility 	startTime 	54.1
scalar RSUExampleScenario.node[18].veinsmobility 	totalTime 	267.3
scalar RSUExampleScenario.node[18].veinsmobility 	stopTime 	321.5
scalar RSUExampleScenario.node[18].veinsmobility 	minSpeed 	0.25792789330403
scalar RSUExampleScenario.node[18].veinsmobility 	maxSpeed 	13.99999708713
scalar RSUExampleScenario.node[18].veinsmobility 	totalDistance 	3413.6593950258
scalar RSUExampleScenario.node[18].veinsmobility 	totalCO2Emission 	690.25941396243
scalar RSUExampleScenario.node[19].veinsmobility 	startTime 	57.1
scalar RSUExampleScenario.node[19].veinsmobility 	totalTime 	267.3
scalar RSUExampleScenario.node[19].veinsmobility 	stopTime 	324.5
scalar RSUExampleScenario.node[19].veinsmobility 	minSpeed 	0.25412585112266
scalar RSUExampleScenario.node[19].veinsmobility 	maxSpeed 	13.99991358533
scalar RSUExampleScenario.node[19].veinsmobility 	totalDistance 	3409.6792105771
scalar RSUExampleScenario.node[19].veinsmobility 	totalCO2Emission 	690.85739075495
scalar RSUExampleScenario.node[20].veinsmobility 	startTime 	60.1
scalar RSUExampleScenario.node[20].veinsmobility 	totalTime 	267.3
scalar RSUExampleScenario.node[20].veinsmobility 	stopTime 	327.5
scalar RSUExampleScenario.node[20].veinsmobility 	minSpeed 	0.25698694793112
scalar RSUExampleScenario.node[20].veinsmobility 	maxSpeed 	13.9999459955
scalar RSUExampleScenario.node[20].veinsmobility 	totalDistance 	3413.6689346993
scalar RSUExampleScenario.node[20].veinsmobility 	totalCO2Emission 	692.25898598932
scalar RSUExampleScenario.node[21].veinsmobility 	startTime 	63.1
scalar RSUExampleScenario.node[21].veinsmobility 	totalTime 	267.3
scalar RSUExampleScenario.node[21].veinsmobility 	stopTime 	330.5
scalar RSUExampleScenario.node[21].veinsmobility 	minSpeed 	0.25746777127823
scalar RSUExampleScenario.node[21].veinsmobility 	maxSpeed 	13.99995007629
scalar RSUExampleScenario.node[21].veinsmobility 	totalDistance 	3409.8971911069
scalar RSUExampleScenario.node[21].veinsmobility 	totalCO2Emission 	692.08364430242
scalar RSUExampleScenario.node[22].veinsmobility 	startTime 	66.1
scalar RSUExampleScenario.node[22].veinsmobility 	totalTime 	267.3
scalar RSUExampleScenario.node[22].veinsmobility 	stopTime 	333.5
scalar RSUExampleScenario.node[22].veinsmobility 	minSpeed 	0.24899079578044
scalar RSUExampleScenario.node[22].veinsmobility 	maxSpeed 	13.999941321246
scalar RSUExampleScenario.node[22].veinsmobility 	totalDistance 	3413.8040450656
scalar RSUExampleScenario.node[22].veinsmobility 	totalCO2Emission 	694.4434465262
scalar RSUExampleScenario.node[23].veinsmobility 	startTime 	69.1
scalar RSUExampleScenario.node[23].veinsmobility 	totalTime 	267.4
scalar RSUExampleScenario.node[23].veinsmobility 	stopTime 	336.6
scalar RSUExampleScenario.node[23].veinsmobility 	minSpeed 	0.25067094701296
scalar RSUExampleScenario.node[23].veinsmobility 	maxSpeed 	13.999989269879
scalar RSUExampleScenario.node[23].veinsmobility 	totalDistance 	3409.7847227902
scalar RSUExampleScenario.node[23].veinsmobility 	totalCO2Emission 	691.55882240321
scalar RSUExampleScenario.node[24].veinsmobility 	startTime 	72.1
scalar RSUExampleScenario.node[24].veinsmobility 	totalTime 	267.4
scalar RSUExampleScenario.node[24].veinsmobility 	stopTime 	339.6
scalar RSUExampleScenario.node[24].veinsmobility 	minSpeed 	0.25258122949372
scalar RSUExampleScenario.node[24].veinsmobility 	maxSpeed 	13.999976992307
scalar RSUExampleScenario.node[24].veinsmobility 	totalDistance 	3413.4109338782
scalar RSUExampleScenario.node[24].veinsmobility 	totalCO2Emission 	689.83295316759
scalar RSUExampleScenario.node[25].veinsmobility 	startTime 	75.1
scalar RSUExampleScenario.node[25].veinsmobility 	totalTime 	267.5
scalar RSUExampleScenario.node[25].veinsmobility 	stopTime 	342.7
scalar RSUExampleScenario.node[25].veinsmobility 	minSpeed 	0.25041930514108
scalar RSUExampleScenario.node[25].veinsmobility 	maxSpeed 	13.999887714074
scalar RSUExampleScenario.node[25].veinsmobility 	totalDistance 	3409.9690928946
scalar RSUExampleScenario.node[25].veinsmobility 	totalCO2Emission 	693.69295232384
scalar RSUExampleScenario.node[26].veinsmobility 	startTime 	78.1
scalar RSUExampleScenario.node[26].veinsmobility 	totalTime 	267.6
scalar RSUExampleScenario.node[26].veinsmobility 	stopTime 	345.8
scalar RSUExampleScenario.node[26].veinsmobility 	minSpeed 	0.25905958803673
scalar RSUExampleScenario.node[26].veinsmobility 	maxSpeed 	13.999955474827
scalar RSUExampleScenario.node[26].veinsmobility 	totalDistance 	3414.0764694783
scalar RSUExampleScenario.node[26].veinsmobility 	totalCO2Emission 	690.32224934816
scalar RSUExampleScenario.node[27].veinsmobility 	startTime 	81.1
scalar RSUExampleScenario.node[27].veinsmobility 	totalTime 	267.7
scalar RSUExampleScenario.node[27].veinsmobility 	stopTime 	348.9
scalar RSUExampleScenario.node[27].veinsmobility 	minSpeed 	0.24945231210697
scalar RSUExampleScenario.node[27].veinsmobility 	maxSpeed 	13.999999806164
scalar RSUExampleScenario.node[27].veinsmobility 	totalDistance 	3409.5469530562
scalar RSUExampleScenario.node[27].veinsmobility 	totalCO2Emission 	694.97889535071
scalar RSUExampleScenario.node[28].veinsmobility 	startTime 	84.1
scalar RSUExampleScenario.node[28].veinsmobility 	totalTime 	267.8
scalar RSUExampleScenario.node[28].veinsmobility 	stopTime 	352
scalar RSUExampleScenario.node[28].veinsmobility 	minSpeed 	0.25430435841181
scalar RSUExampleScenario.node[28].veinsmobility 	maxSpeed 	13.999860904056
scalar RSUExampleScenario.node[28].veinsmobility 	totalDistance 	3413.855953182
scalar RSUExampleScenario.node[28].veinsmobility 	totalCO2Emission 	693.18889347974
scalar RSUExampleScenario.node[29].veinsmobility 	startTime 	87.1
scalar RSUExampleScenario.node[29].veinsmobility 	totalTime 	268
scalar RSUExampleScenario.node[29].veinsmobility 	stopTime 	355.2
scalar RSUExampleScenario.node[29].veinsmobility 	minSpeed 	0.24815081716701
scalar RSUExampleScenario.node[29].veinsmobility 	maxSpeed 	13.999826255871
scalar RSUExampleScenario.node[29].veinsmobility 	totalDistance 	3410.1037709855
scalar RSUExampleScenario.node[29].veinsmobility 	totalCO2Emission 	696.68646422385
scalar RSUExampleScenario.node[30].veinsmobility 	startTime 	90.1
scalar RSUExampleScenario.node[30].veinsmobility 	totalTime 	268.2
scalar RSUExampleScenario.node[30].veinsmobility 	stopTime 	358.4
scalar RSUExampleScenario.node[30].veinsmobility 	minSpeed 	0.25681064396049
scalar RSUExampleScenario.node[30].veinsmobility 	maxSpeed 	13.999982844864
scalar RSUExampleScenario.node[30].veinsmobility 	totalDistance 	3413.9745908485
scalar RSUExampleScenario.node[30].veinsmobility 	totalCO2Emission 	688.7272738493
scalar RSUExampleScenario.node[31].veinsmobility 	startTime 	93.1
scalar RSUExampleScenario.node[31].veinsmobility 	totalTime 	268.4
scalar RSUExampleScenario.node[31].veinsmobility 	stopTime 	361.6
scalar RSUExampleScenario.node[31].veinsmobility 	minSpeed 	0.25096985335532
scalar RSUExampleScenario.node[31].veinsmobility 	maxSpeed 	13.999841460146
scalar RSUExampleScenario.node[31].veinsmobility 	totalDistance 	3409.3428551096
scalar RSUExampleScenario.node[31].veinsmobility 	totalCO2Emission 	692.86544348264
scalar RSUExampleScenario.node[32].veinsmobility 	startTime 	96.1
scalar RSUExampleScenario.node[32].veinsmobility 	totalTime 	268.6
scalar RSUExampleScenario.node[32].veinsmobility 	stopTime 	364.8
scalar RSUExampleScenario.node[32].veinsmobility 	minSpeed 	0.25234310462838
scalar RSUExampleScenario.node[32].veinsmobility 	maxSpeed 	13.999829409614
scalar RSUExampleScenario.node[32].veinsmobility 	totalDistance 	3413.5812758787
scalar RSUExampleScenario.node[32].veinsmobility 	totalCO2Emission 	691.28085547208
scalar RSUExampleScenario.node[33].veinsmobility 	startTime 	99.1
scalar RSUExampleScenario.node[33].veinsmobility 	totalTime 	268.9
scalar RSUExampleScenario.node[33].veinsmobility 	stopTime 	368.1
scalar RSUExampleScenario.node[33].veinsmobility 	minSpeed 	0.2489701422432
scalar RSUExampleScenario.node[33].veinsmobility 	maxSpeed 	13.999877746827
scalar RSUExampleScenario.node[33].veinsmobility 	totalDistance 	3409.9592338423
scalar RSUExampleScenario.node[33].veinsmobility 	totalCO2Emission 	690.54891100966
scalar RSUExampleScenario.node[34].veinsmobility 	startTime 	102.1
scalar RSUExampleScenario.node[34].veinsmobility 	totalTime 	269.3
scalar RSUExampleScenario.node[34].veinsmobility 	stopTime 	371.5
scalar RSUExampleScenario.node[34].veinsmobility 	minSpeed 	0.25105636423477
scalar RSUExampleScenario.node[34].veinsmobility 	maxSpeed 	13.999985431293
scalar RSUExampleScenario.node[34].veinsmobility 	totalDistance 	3413.9851212143
scalar RSUExampleScenario.node[34].veinsmobility 	totalCO2Emission 	690.77553411771
scalar RSUExampleScenario.node[35].veinsmobility 	startTime 	105.1
scalar RSUExampleScenario.node[35].veinsmobility 	totalTime 	269.8
scalar RSUExampleScenario.node[35].veinsmobility 	stopTime 	375
scalar RSUExampleScenario.node[35].veinsmobility 	minSpeed 	0.2562981157722
scalar RSUExampleScenario.node[35].veinsmobility 	maxSpeed 	13.999891588467
scalar RSUExampleScenario.node[35].veinsmobility 	totalDistance 	3409.9446049925
scalar RSUExampleScenario.node[35].veinsmobility 	totalCO2Emission 	690.49569399748
scalar RSUExampleScenario.node[36].veinsmobility 	startTime 	108.1
scalar RSUExampleScenario.node[36].veinsmobility 	totalTime 	270.3
scalar RSUExampleScenario.node[36].veinsmobility 	stopTime 	378.5
scalar RSUExampleScenario.node[36].veinsmobility 	minSpeed 	0.25597199667222
scalar RSUExampleScenario.node[36].veinsmobility 	maxSpeed 	13.999995839878
scalar RSUExampleScenario.node[36].veinsmobility 	totalDistance 	3413.8589655308
scalar RSUExampleScenario.node[36].veinsmobility 	totalCO2Emission 	694.35586231689
scalar RSUExampleScenario.node[37].veinsmobility 	startTime 	111.1
scalar RSUExampleScenario.node[37].veinsmobility 	totalTime 	270.8
scalar RSUExampleScenario.node[37].veinsmobility 	stopTime 	382
scalar RSUExampleScenario.node[37].veinsmobility 	minSpeed 	0.24866862059268
scalar RSUExampleScenario.node[37].veinsmobility 	maxSpeed 	13.999900578663
scalar RSUExampleScenario.node[37].veinsmobility 	totalDistance 	3409.4074717526
scalar RSUExampleScenario.node[37].veinsmobility 	totalCO2Emission 	694.20860107146
scalar RSUExampleScenario.node[38].veinsmobility 	startTime 	114.1
scalar RSUExampleScenario.node[38].veinsmobility 	totalTime 	271.4
scalar RSUExampleScenario.node[38].veinsmobility 	stopTime 	385.6
scalar RSUExampleScenario.node[38].veinsmobility 	minSpeed 	0.25196831662348
scalar RSUExampleScenario.node[38].veinsmobility 	maxSpeed 	13.999948408767
scalar RSUExampleScenario.node[38].veinsmobility 	totalDistance 	3414.1511968919
scalar RSUExampleScenario.node[38].veinsmobility 	totalCO2Emission 	695.6523916632
scalar RSUExampleScenario.node[39].veinsmobility 	startTime 	117.1
scalar RSUExampleScenario.node[39].veinsmobility 	totalTime 	272.1
scalar RSUExampleScenario.node[39].veinsmobility 	stopTime 	389.3
scalar RSUExampleScenario.node[39].veinsmobility 	minSpeed 	0.25572943547391
scalar RSUExampleScenario.node[39].veinsmobility 	maxSpeed 	13.999910565615
scalar RSUExampleScenario.node[39].veinsmobility 	totalDistance 	3410.1061484756
scalar RSUExampleScenario.node[39].veinsmobility 	totalCO2Emission 	689.1830338938
scalar RSUExampleScenario.node[40].veinsmobility 	startTime 	120.1
scalar RSUExampleScenario.node[40].veinsmobility 	totalTime 	272.8
scalar RSUExampleScenario.node[40].veinsmobility 	stopTime 	393
scalar RSUExampleScenario.node[40].veinsmobility 	minSpeed 	0.25121987309027
scalar RSUExampleScenario.node[40].veinsmobility 	maxSpeed 	13.999997010613
scalar RSUExampleScenario.node[40].veinsmobility 	totalDistance 	3413.9826003324
scalar RSUExampleScenario.node[40].veinsmobility 	totalCO2Emission 	697.02122745382
scalar RSUExampleScenario.node[41].veinsmobility 	startTime 	123.1
scalar RSUExampleScenario.node[41].veinsmobility 	totalTime 	273.5
scalar RSUExampleScenario.node[41].veinsmobility 	stopTime 	396.7
scalar RSUExampleScenario.node[41].veinsmobility 	minSpeed 	0.24804616814083
scalar RSUExampleScenario.node[41].veinsmobility 	maxSpeed 	13.999790242601
scalar RSUExampleScenario.node[41].veinsmobility 	totalDistance 	3409.6201577732
scalar RSUExampleScenario.node[41].veinsmobility 	totalCO2Emission 	694.65876570643
scalar RSUExampleScenario.node[42].veinsmobility 	startTime 	126.1
scalar RSUExampleScenario.node[42].veinsmobility 	totalTime 	274.2
scalar RSUExampleScenario.node[42].veinsmobility 	stopTime 	400.4
scalar RSUExampleScenario.node[42].veinsmobility 	minSpeed 	0.24803615149949
scalar RSUExampleScenario.node[42].veinsmobility 	maxSpeed 	13.999957991429
scalar RSUExampleScenario.node[42].veinsmobility 	totalDistance 	3414.1940127461
scalar RSUExampleScenario.node[42].veinsmobility 	totalCO2Emission 	700.0360786345
scalar RSUExampleScenario.node[43].veinsmobility 	startTime 	129.1
scalar RSUExampleScenario.node[43].veinsmobility 	totalTime 	274.9
scalar RSUExampleScenario.node[43].veinsmobility 	stopTime 	404.1
scalar RSUExampleScenario.node[43].veinsmobility 	minSpeed 	0.25092779732379
scalar RSUExampleScenario.node[43].veinsmobility 	maxSpeed 	13.999842587719
scalar RSUExampleScenario.node[43].veinsmobility 	totalDistance 	3409.6127830875
scalar RSUExampleScenario.node[43].veinsmobility 	totalCO2Emission 	693.48262936409
scalar RSUExampleScenario.node[44].veinsmobility 	startTime 	132.1
scalar RSUExampleScenario.node[44].veinsmobility 	totalTime 	275.6
scalar RSUExampleScenario.node[44].veinsmobility 	stopTime 	407.8
scalar RSUExampleScenario.node[44].veinsmobility 	minSpeed 	0.25491432462423
scalar RSUExampleScenario.node[44].veinsmobility 	maxSpeed 	13.999975306683
scalar RSUExampleScenario.node[44].veinsmobility 	totalDistance 	3413.8532964259
scalar RSUExampleScenario.node[44].veinsmobility 	totalCO2Emission 	695.18510767118
scalar RSUExampleScenario.node[45].veinsmobility 	startTime 	135.1
scalar RSUExampleScenario.node[45].veinsmobility 	totalTime 	276.3
scalar RSUExampleScenario.node[45].veinsmobility 	stopTime 	411.5
scalar RSUExampleScenario.node[45].veinsmobility 	minSpeed 	0.25987320085731
scalar RSUExampleScenario.node[45].veinsmobility 	maxSpeed 	13.999860563269
scalar RSUExampleScenario.node[45].veinsmobility 	totalDistance 	3409.6226408378
scalar RSUExampleScenario.node[45].veinsmobility 	totalCO2Emission 	699.93832654116
scalar RSUExampleScenario.node[46].veinsmobility 	startTime 	138.1
scalar RSUExampleScenario.node[46].veinsmobility 	totalTime 	277
scalar RSUExampleScenario.node[46].veinsmobility 	stopTime 	415.2
scalar RSUExampleScenario.node[46].veinsmobility 	minSpeed 	0.24711261755112
scalar RSUExampleScenario.node[46].veinsmobility 	maxSpeed 	13.999999379234
scalar RSUExampleScenario.node[46].veinsmobility 	totalDistance 	3414.3222457875
scalar RSUExampleScenario.node[46].veinsmobility 	totalCO2Emission 	703.26177931483
scalar RSUExampleScenario.node[47].veinsmobility 	startTime 	141.1
scalar RSUExampleScenario.node[47].veinsmobility 	totalTime 	277.8
scalar RSUExampleScenario.node[47].veinsmobility 	stopTime 	419
scalar RSUExampleScenario.node[47].veinsmobility 	minSpeed 	0.25935603530519
scalar RSUExampleScenario.node[47].veinsmobility 	maxSpeed 	13.999963762474
scalar RSUExampleScenario.node[47].veinsmobility 	totalDistance 	3410.1847955482
scalar RSUExampleScenario.node[47].veinsmobility 	totalCO2Emission 	695.73841568157
scalar RSUExampleScenario.node[48].veinsmobility 	startTime 	144.1
scalar RSUExampleScenario.node[48].veinsmobility 	totalTime 	278.5
scalar RSUExampleScenario.node[48].veinsmobility 	stopTime 	422.7
scalar RSUExampleScenario.node[48].veinsmobility 	minSpeed 	0.25149148459127
scalar RSUExampleScenario.node[48].veinsmobility 	maxSpeed 	13.999983124237
scalar RSUExampleScenario.node[48].veinsmobility 	totalDistance 	3413.6022392108
scalar RSUExampleScenario.node[48].veinsmobility 	totalCO2Emission 	697.72632675837
scalar RSUExampleScenario.node[49].veinsmobility 	startTime 	147.1
scalar RSUExampleScenario.node[49].veinsmobility 	totalTime 	279.2
scalar RSUExampleScenario.node[49].veinsmobility 	stopTime 	426.4
scalar RSUExampleScenario.node[49].veinsmobility 	minSpeed 	0.25082526627858
scalar RSUExampleScenario.node[49].veinsmobility 	maxSpeed 	13.999966068682
scalar RSUExampleScenario.node[49].veinsmobility 	totalDistance 	3409.7014180758
scalar RSUExampleScenario.node[49].veinsmobility 	totalCO2Emission 	703.89291801778
scalar RSUExampleScenario.node[50].veinsmobility 	startTime 	150.1
scalar RSUExampleScenario.node[50].veinsmobility 	totalTime 	279.9
scalar RSUExampleScenario.node[50].veinsmobility 	stopTime 	430.1
scalar RSUExampleScenario.node[50].veinsmobility 	minSpeed 	0.25486168430862
scalar RSUExampleScenario.node[50].veinsmobility 	maxSpeed 	13.999897716977
scalar RSUExampleScenario.node[50].veinsmobility 	totalDistance 	3413.9984856956
scalar RSUExampleScenario.node[50].veinsmobility 	totalCO2Emission 	700.75597374125
scalar RSUExampleScenario.node[51].veinsmobility 	startTime 	153.1
scalar RSUExampleScenario.node[51].veinsmobility 	totalTime 	280.5
scalar RSUExampleScenario.node[51].veinsmobility 	stopTime 	433.7
scalar RSUExampleScenario.node[51].veinsmobility 	minSpeed 	0.25238094730815
scalar RSUExampleScenario.node[51].veinsmobility 	maxSpeed 	13.999883394348
scalar RSUExampleScenario.node[51].veinsmobility 	totalDistance 	3409.5303303245
scalar RSUExampleScenario.node[51].veinsmobility 	totalCO2Emission 	703.67934576565
scalar RSUExampleScenario.node[52].veinsmobility 	startTime 	156.1
scalar RSUExampleScenario.node[52].veinsmobility 	totalTime 	281.2
scalar RSUExampleScenario.node[52].veinsmobility 	stopTime 	437.4
scalar RSUExampleScenario.node[52].veinsmobility 	minSpeed 	0.25151735719759
scalar RSUExampleScenario.node[52].veinsmobility 	maxSpeed 	13.999959952945
scalar RSUExampleScenario.node[52].veinsmobility 	totalDistance 	3414.1402794578
scalar RSUExampleScenario.node[52].veinsmobility 	totalCO2Emission 	703.00349982488
scalar RSUExampleScenario.node[53].veinsmobility 	startTime 	159.1
scalar RSUExampleScenario.node[53].veinsmobility 	totalTime 	281.8
scalar RSUExampleScenario.node[53].veinsmobility 	stopTime 	441
scalar RSUExampleScenario.node[53].veinsmobility 	minSpeed 	0.25810507544572
scalar RSUExampleScenario.node[53].veinsmobility 	maxSpeed 	13.999960049076
scalar RSUExampleScenario.node[53].veinsmobility 	totalDistance 	3409.4909338403
scalar RSUExampleScenario.node[53].veinsmobility 	totalCO2Emission 	700.8069149575
scalar RSUExampleScenario.node[54].veinsmobility 	startTime 	162.1
scalar RSUExampleScenario.node[54].veinsmobility 	totalTime 	282.5
scalar RSUExampleScenario.node[54].veinsmobility 	stopTime 	444.7
scalar RSUExampleScenario.node[54].veinsmobility 	minSpeed 	0.25042856957461
scalar RSUExampleScenario.node[54].veinsmobility 	maxSpeed 	13.999979402244
scalar RSUExampleScenario.node[54].veinsmobility 	totalDistance 	3414.0077940002
scalar RSUExampleScenario.node[54].veinsmobility 	totalCO2Emission 	702.537552699
scalar RSUExampleScenario.node[55].veinsmobility 	startTime 	165.1
scalar RSUExampleScenario.node[55].veinsmobility 	totalTime 	283.2
scalar RSUExampleScenario.node[55].veinsmobility 	stopTime 	448.4
scalar RSUExampleScenario.node[55].veinsmobility 	minSpeed 	0.25886921182671
scalar RSUExampleScenario.node[55].veinsmobility 	maxSpeed 	13.999909981806
scalar RSUExampleScenario.node[55].veinsmobility 	totalDistance 	3409.9131942229
scalar RSUExampleScenario.node[55].veinsmobility 	totalCO2Emission 	705.80321581365
scalar RSUExampleScenario.node[56].veinsmobility 	startTime 	168.1
scalar RSUExampleScenario.node[56].veinsmobility 	totalTime 	283.8
scalar RSUExampleScenario.node[56].veinsmobility 	stopTime 	452
scalar RSUExampleScenario.node[56].veinsmobility 	minSpeed 	0.24884590424714
scalar RSUExampleScenario.node[56].veinsmobility 	maxSpeed 	13.999991434827
scalar RSUExampleScenario.node[56].veinsmobility 	totalDistance 	3413.7272342918
scalar RSUExampleScenario.node[56].veinsmobility 	totalCO2Emission 	706.93555664806
scalar RSUExampleScenario.node[57].veinsmobility 	startTime 	171.1
scalar RSUExampleScenario.node[57].veinsmobility 	totalTime 	284.3
scalar RSUExampleScenario.node[57].veinsmobility 	stopTime 	455.5
scalar RSUExampleScenario.node[57].veinsmobility 	minSpeed 	0.25238368155435
scalar RSUExampleScenario.node[57].veinsmobility 	maxSpeed 	13.999925414966
scalar RSUExampleScenario.node[57].veinsmobility 	totalDistance 	3409.3621927594
scalar RSUExampleScenario.node[57].veinsmobility 	totalCO2Emission 	708.48314356338
scalar RSUExampleScenario.node[58].veinsmobility 	startTime 	174.1
scalar RSUExampleScenario.node[58].veinsmobility 	totalTime 	285
scalar RSUExampleScenario.node[58].veinsmobility 	stopTime 	459.2
scalar RSUExampleScenario.node[58].veinsmobility 	minSpeed 	0.25662689591525
scalar RSUExampleScenario.node[58].veinsmobility 	maxSpeed 	13.999911202786
scalar RSUExampleScenario.node[58].veinsmobility 	totalDistance 	3414.0330375829
scalar RSUExampleScenario.node[58].veinsmobility 	totalCO2Emission 	708.25649067951
scalar RSUExampleScenario.node[59].veinsmobility 	startTime 	177.1
scalar RSUExampleScenario.node[59].veinsmobility 	totalTime 	285.7
scalar RSUExampleScenario.node[59].veinsmobility 	stopTime 	462.9
scalar RSUExampleScenario.node[59].veinsmobility 	minSpeed 	0.25743547388073
scalar RSUExampleScenario.node[59].veinsmobility 	maxSpeed 	13.999985028941
scalar RSUExampleScenario.node[59].veinsmobility 	totalDistance 	3409.7205062348
scalar RSUExampleScenario.node[59].veinsmobility 	totalCO2Emission 	706.60643290739
scalar RSUExampleScenario.node[60].veinsmobility 	startTime 	180.1
scalar RSUExampleScenario.node[60].veinsmobility 	totalTime 	286.3
scalar RSUExampleScenario.node[60].veinsmobility 	stopTime 	466.5
scalar RSUExampleScenario.node[60].veinsmobility 	minSpeed 	0.25945388332731
scalar RSUExampleScenario.node[60].veinsmobility 	maxSpeed 	13.9999987384
scalar RSUExampleScenario.node[60].veinsmobility 	totalDistance 	3413.5026901927
scalar RSUExampleScenario.node[60].veinsmobility 	totalCO2Emission 	713.65901135047
scalar RSUExampleScenario.node[61].veinsmobility 	startTime 	183.1
scalar RSUExampleScenario.node[61].veinsmobility 	totalTime 	287
scalar RSUExampleScenario.node[61].veinsmobility 	stopTime 	470.2
scalar RSUExampleScenario.node[61].veinsmobility 	minSpeed 	0.25414405360096
scalar RSUExampleScenario.node[61].veinsmobility 	maxSpeed 	13.999964637763
scalar RSUExampleScenario.node[61].veinsmobility 	totalDistance 	3410.1158161017
scalar RSUExampleScenario.node[61].veinsmobility 	totalCO2Emission 	707.78405495678
scalar RSUExampleScenario.node[62].veinsmobility 	startTime 	186.1
scalar RSUExampleScenario.node[62].veinsmobility 	totalTime 	287.7
scalar RSUExampleScenario.node[62].veinsmobility 	stopTime 	473.9
scalar RSUExampleScenario.node[62].veinsmobility 	minSpeed 	0.25341587138944
scalar RSUExampleScenario.node[62].veinsmobility 	maxSpeed 	13.999906579321
scalar RSUExampleScenario.node[62].veinsmobility 	totalDistance 	3413.707613052
scalar RSUExampleScenario.node[62].veinsmobility 	totalCO2Emission 	708.72304033121
scalar RSUExampleScenario.node[63].veinsmobility 	startTime 	189.1
scalar RSUExampleScenario.node[63].veinsmobility 	totalTime 	288.5
scalar RSUExampleScenario.node[63].veinsmobility 	stopTime 	477.7
scalar RSUExampleScenario.node[63].veinsmobility 	minSpeed 	0.25177522806614
scalar RSUExampleScenario.node[63].veinsmobility 	maxSpeed 	13.999910798769
scalar RSUExampleScenario.node[63].veinsmobility 	totalDistance 	3410.0940369095
scalar RSUExampleScenario.node[63].veinsmobility 	totalCO2Emission 	707.48027482098
scalar RSUExampleScenario.node[64].veinsmobility 	startTime 	192.1
scalar RSUExampleScenario.node[64].veinsmobility 	totalTime 	289.2
scalar RSUExampleScenario.node[64].veinsmobility 	stopTime 	481.4
scalar RSUExampleScenario.node[64].veinsmobility 	minSpeed 	0.2596783769608
scalar RSUExampleScenario.node[64].veinsmobility 	maxSpeed 	13.999660047502
scalar RSUExampleScenario.node[64].veinsmobility 	totalDistance 	3413.8408837648
scalar RSUExampleScenario.node[64].veinsmobility 	totalCO2Emission 	711.13499231461
scalar RSUExampleScenario.node[65].veinsmobility 	startTime 	195.1
scalar RSUExampleScenario.node[65].veinsmobility 	totalTime 	289.9
scalar RSUExampleScenario.node[65].veinsmobility 	stopTime 	485.1
scalar RSUExampleScenario.node[65].veinsmobility 	minSpeed 	0.24781387619744
scalar RSUExampleScenario.node[65].veinsmobility 	maxSpeed 	13.999940645755
scalar RSUExampleScenario.node[65].veinsmobility 	totalDistance 	3409.8024169075
scalar RSUExampleScenario.node[65].veinsmobility 	totalCO2Emission 	708.31531026813
scalar RSUExampleScenario.node[66].veinsmobility 	startTime 	198.1
scalar RSUExampleScenario.node[66].veinsmobility 	totalTime 	290.6
scalar RSUExampleScenario.node[66].veinsmobility 	stopTime 	488.8
scalar RSUExampleScenario.node[66].veinsmobility 	minSpeed 	0.24949494094797
scalar RSUExampleScenario.node[66].veinsmobility 	maxSpeed 	13.999950525255
scalar RSUExampleScenario.node[66].veinsmobility 	totalDistance 	3413.6323325916
scalar RSUExampleScenario.node[66].veinsmobility 	totalCO2Emission 	711.85277375413
scalar RSUExampleScenario.node[67].veinsmobility 	startTime 	201.1
scalar RSUExampleScenario.node[67].veinsmobility 	totalTime 	291.3
scalar RSUExampleScenario.node[67].veinsmobility 	stopTime 	492.5
scalar RSUExampleScenario.node[67].veinsmobility 	minSpeed 	0.25256759429676
scalar RSUExampleScenario.node[67].veinsmobility 	maxSpeed 	13.999986469091
scalar RSUExampleScenario.node[67].veinsmobility 	totalDistance 	3409.8554396615
scalar RSUExampleScenario.node[67].veinsmobility 	totalCO2Emission 	710.84516578882
scalar RSUExampleScenario.node[68].veinsmobility 	startTime 	204.1
scalar RSUExampleScenario.node[68].veinsmobility 	totalTime 	292
scalar RSUExampleScenario.node[68].veinsmobility 	stopTime 	496.2
scalar RSUExampleScenario.node[68].veinsmobility 	minSpeed 	0.25568590399623
scalar RSUExampleScenario.node[68].veinsmobility 	maxSpeed 	13.999867319143
scalar RSUExampleScenario.node[68].veinsmobility 	totalDistance 	3413.8259891307
scalar RSUExampleScenario.node[68].veinsmobility 	totalCO2Emission 	712.8229212011
scalar RSUExampleScenario.node[69].veinsmobility 	startTime 	207.1
scalar RSUExampleScenario.node[69].veinsmobility 	totalTime 	292.7
scalar RSUExampleScenario.node[69].veinsmobility 	stopTime 	499.9
scalar RSUExampleScenario.node[69].veinsmobility 	minSpeed 	0.25506645312952
scalar RSUExampleScenario.node[69].veinsmobility 	maxSpeed 	13.999930998955
scalar RSUExampleScenario.node[69].veinsmobility 	totalDistance 	3409.745803801
scalar RSUExampleScenario.node[69].veinsmobility 	totalCO2Emission 	716.8137282681
scalar RSUExampleScenario.node[70].veinsmobility 	startTime 	210.1
scalar RSUExampleScenario.node[70].veinsmobility 	totalTime 	293.4
scalar RSUExampleScenario.node[70].veinsmobility 	stopTime 	503.6
scalar RSUExampleScenario.node[70].veinsmobility 	minSpeed 	0.24811438485119
scalar RSUExampleScenario.node[70].veinsmobility 	maxSpeed 	13.999993492414
scalar RSUExampleScenario.node[70].veinsmobility 	totalDistance 	3414.0685105367
scalar RSUExampleScenario.node[70].veinsmobility 	totalCO2Emission 	713.5652380521
scalar RSUExampleScenario.node[71].veinsmobility 	startTime 	213.1
scalar RSUExampleScenario.node[71].veinsmobility 	totalTime 	294.1
scalar RSUExampleScenario.node[71].veinsmobility 	stopTime 	507.3
scalar RSUExampleScenario.node[71].veinsmobility 	minSpeed 	0.24975897249836
scalar RSUExampleScenario.node[71].veinsmobility 	maxSpeed 	13.999854217253
scalar RSUExampleScenario.node[71].veinsmobility 	totalDistance 	3409.972553568
scalar RSUExampleScenario.node[71].veinsmobility 	totalCO2Emission 	716.41607933581
scalar RSUExampleScenario.node[72].veinsmobility 	startTime 	216.1
scalar RSUExampleScenario.node[72].veinsmobility 	totalTime 	294.7
scalar RSUExampleScenario.node[72].veinsmobility 	stopTime 	510.9
scalar RSUExampleScenario.node[72].veinsmobility 	minSpeed 	0.25504917698773
scalar RSUExampleScenario.node[72].veinsmobility 	maxSpeed 	13.999929756364
scalar RSUExampleScenario.node[72].veinsmobility 	totalDistance 	3413.8391073097
scalar RSUExampleScenario.node[72].veinsmobility 	totalCO2Emission 	716.07886943302
scalar RSUExampleScenario.node[73].veinsmobility 	startTime 	219.1
scalar RSUExampleScenario.node[73].veinsmobility 	totalTime 	295.4
scalar RSUExampleScenario.node[73].veinsmobility 	stopTime 	514.6
scalar RSUExampleScenario.node[73].veinsmobility 	minSpeed 	0.25187167511648
scalar RSUExampleScenario.node[73].veinsmobility 	maxSpeed 	13.999993155834
scalar RSUExampleScenario.node[73].veinsmobility 	totalDistance 	3409.8674183861
scalar RSUExampleScenario.node[73].veinsmobility 	totalCO2Emission 	718.76645744738
scalar RSUExampleScenario.node[74].veinsmobility 	startTime 	222.1
scalar RSUExampleScenario.node[74].veinsmobility 	totalTime 	296.1
scalar RSUExampleScenario.node[74].veinsmobility 	stopTime 	518.3
scalar RSUExampleScenario.node[74].veinsmobility 	minSpeed 	0.25710693581193
scalar RSUExampleScenario.node[74].veinsmobility 	maxSpeed 	13.9999668907
scalar RSUExampleScenario.node[74].veinsmobility 	totalDistance 	3413.9973963695
scalar RSUExampleScenario.node[74].veinsmobility 	totalCO2Emission 	718.54380523722
scalar RSUExampleScenario.node[75].veinsmobility 	startTime 	225.1
scalar RSUExampleScenario.node[75].veinsmobility 	totalTime 	296.9
scalar RSUExampleScenario.node[75].veinsmobility 	stopTime 	522.1
scalar RSUExampleScenario.node[75].veinsmobility 	minSpeed 	0.2539836818797
scalar RSUExampleScenario.node[75].veinsmobility 	maxSpeed 	13.999928372754
scalar RSUExampleScenario.node[75].veinsmobility 	totalDistance 	3409.690509846
scalar RSUExampleScenario.node[75].veinsmobility 	totalCO2Emission 	720.89919493213
scalar RSUExampleScenario.node[76].veinsmobility 	startTime 	228.1
scalar RSUExampleScenario.node[76].veinsmobility 	totalTime 	297.6
scalar RSUExampleScenario.node[76].veinsmobility 	stopTime 	525.8
scalar RSUExampleScenario.node[76].veinsmobility 	minSpeed 	0.25318273155508
scalar RSUExampleScenario.node[76].veinsmobility 	maxSpeed 	13.999995689113
scalar RSUExampleScenario.node[76].veinsmobility 	totalDistance 	3413.7448543205
scalar RSUExampleScenario.node[76].veinsmobility 	totalCO2Emission 	719.22719339236
scalar RSUExampleScenario.node[77].veinsmobility 	startTime 	231.1
scalar RSUExampleScenario.node[77].veinsmobility 	totalTime 	298.2
scalar RSUExampleScenario.node[77].veinsmobility 	stopTime 	529.4
scalar RSUExampleScenario.node[77].veinsmobility 	minSpeed 	0.25804714704095
scalar RSUExampleScenario.node[77].veinsmobility 	maxSpeed 	13.999876427082
scalar RSUExampleScenario.node[77].veinsmobility 	totalDistance 	3409.4258183559
scalar RSUExampleScenario.node[77].veinsmobility 	totalCO2Emission 	718.88337787078
scalar RSUExampleScenario.node[78].veinsmobility 	startTime 	234.1
scalar RSUExampleScenario.node[78].veinsmobility 	totalTime 	298.9
scalar RSUExampleScenario.node[78].veinsmobility 	stopTime 	533.1
scalar RSUExampleScenario.node[78].veinsmobility 	minSpeed 	0.2476927913141
scalar RSUExampleScenario.node[78].veinsmobility 	maxSpeed 	13.99996483057
scalar RSUExampleScenario.node[78].veinsmobility 	totalDistance 	3414.180185245
scalar RSUExampleScenario.node[78].veinsmobility 	totalCO2Emission 	722.22367870348
scalar RSUExampleScenario.node[79].veinsmobility 	startTime 	237.1
scalar RSUExampleScenario.node[79].veinsmobility 	totalTime 	299.6
scalar RSUExampleScenario.node[79].veinsmobility 	stopTime 	536.8
scalar RSUExampleScenario.node[79].veinsmobility 	minSpeed 	0.2518295933269
scalar RSUExampleScenario.node[79].veinsmobility 	maxSpeed 	13.999918621772
scalar RSUExampleScenario.node[79].veinsmobility 	totalDistance 	3409.5678752051
scalar RSUExampleScenario.node[79].veinsmobility 	totalCO2Emission 	716.9863403795
scalar RSUExampleScenario.node[80].veinsmobility 	startTime 	240.1
scalar RSUExampleScenario.node[80].veinsmobility 	totalTime 	300.3
scalar RSUExampleScenario.node[80].veinsmobility 	stopTime 	540.5
scalar RSUExampleScenario.node[80].veinsmobility 	minSpeed 	0.25677679100353
scalar RSUExampleScenario.node[80].veinsmobility 	maxSpeed 	13.999988239466
scalar RSUExampleScenario.node[80].veinsmobility 	totalDistance 	3414.1271951326
scalar RSUExampleScenario.node[80].veinsmobility 	totalCO2Emission 	720.30781385487
scalar RSUExampleScenario.node[81].veinsmobility 	startTime 	243.1
scalar RSUExampleScenario.node[81].veinsmobility 	totalTime 	301
scalar RSUExampleScenario.node[81].veinsmobility 	stopTime 	544.2
scalar RSUExampleScenario.node[81].veinsmobility 	minSpeed 	0.24742766112671
scalar RSUExampleScenario.node[81].veinsmobility 	maxSpeed 	13.999935040276
scalar RSUExampleScenario.node[81].veinsmobility 	totalDistance 	3409.755881295
scalar RSUExampleScenario.node[81].veinsmobility 	totalCO2Emission 	722.47859733668
scalar RSUExampleScenario.node[82].veinsmobility 	startTime 	246.1
scalar RSUExampleScenario.node[82].veinsmobility 	totalTime 	301.6
scalar RSUExampleScenario.node[82].veinsmobility 	stopTime 	547.8
scalar RSUExampleScenario.node[82].veinsmobility 	minSpeed 	0.25483908287529
scalar RSUExampleScenario.node[82].veinsmobility 	maxSpeed 	13.999958017126
scalar RSUExampleScenario.node[82].veinsmobility 	totalDistance 	3413.6586896612
scalar RSUExampleScenario.node[82].veinsmobility 	totalCO2Emission 	724.35372531574
scalar RSUExampleScenario.node[83].veinsmobility 	startTime 	249.1
scalar RSUExampleScenario.node[83].veinsmobility 	totalTime 	302.3
scalar RSUExampleScenario.node[83].veinsmobility 	stopTime 	551.5
scalar RSUExampleScenario.node[83].veinsmobility 	minSpeed 	0.25564466112619
scalar RSUExampleScenario.node[83].veinsmobility 	maxSpeed 	13.999933456383
scalar RSUExampleScenario.node[83].veinsmobility 	totalDistance 	3409.5163435547
scalar RSUExampleScenario.node[83].veinsmobility 	totalCO2Emission 	722.76311240924
scalar RSUExampleScenario.node[84].veinsmobility 	startTime 	252.1
scalar RSUExampleScenario.node[84].veinsmobility 	totalTime 	302.9
scalar RSUExampleScenario.node[84].veinsmobility 	stopTime 	555.1
scalar RSUExampleScenario.node[84].veinsmobility 	minSpeed 	0.25028631450073
scalar RSUExampleScenario.node[84].veinsmobility 	maxSpeed 	13.999864276757
scalar RSUExampleScenario.node[84].veinsmobility 	totalDistance 	3413.7203673146
scalar RSUExampleScenario.node[84].veinsmobility 	totalCO2Emission 	726.49244821676
scalar RSUExampleScenario.node[85].veinsmobility 	startTime 	255.1
scalar RSUExampleScenario.node[85].veinsmobility 	totalTime 	303.7
scalar RSUExampleScenario.node[85].veinsmobility 	stopTime 	558.9
scalar RSUExampleScenario.node[85].veinsmobility 	minSpeed 	0.2508152559814
scalar RSUExampleScenario.node[85].veinsmobility 	maxSpeed 	13.999858241957
scalar RSUExampleScenario.node[85].veinsmobility 	totalDistance 	3409.8233861589
scalar RSUExampleScenario.node[85].veinsmobility 	totalCO2Emission 	729.09230551842
scalar RSUExampleScenario.node[86].veinsmobility 	startTime 	258.1
scalar RSUExampleScenario.node[86].veinsmobility 	totalTime 	304.4
scalar RSUExampleScenario.node[86].veinsmobility 	stopTime 	562.6
scalar RSUExampleScenario.node[86].veinsmobility 	minSpeed 	0.25945576315979
scalar RSUExampleScenario.node[86].veinsmobility 	maxSpeed 	13.9999457447
scalar RSUExampleScenario.node[86].veinsmobility 	totalDistance 	3413.9588042676
scalar RSUExampleScenario.node[86].veinsmobility 	totalCO2Emission 	727.3087631388
scalar RSUExampleScenario.node[87].veinsmobility 	startTime 	261.1
scalar RSUExampleScenario.node[87].veinsmobility 	totalTime 	305.1
scalar RSUExampleScenario.node[87].veinsmobility 	stopTime 	566.3
scalar RSUExampleScenario.node[87].veinsmobility 	minSpeed 	0.24771351036336
scalar RSUExampleScenario.node[87].veinsmobility 	maxSpeed 	13.999815285786
scalar RSUExampleScenario.node[87].veinsmobility 	totalDistance 	3409.7432587871
scalar RSUExampleScenario.node[87].veinsmobility 	totalCO2Emission 	723.25520154481
scalar RSUExampleScenario.node[88].veinsmobility 	startTime 	264.1
scalar RSUExampleScenario.node[88].veinsmobility 	totalTime 	305.8
scalar RSUExampleScenario.node[88].veinsmobility 	stopTime 	570
scalar RSUExampleScenario.node[88].veinsmobility 	minSpeed 	0.25801744495658
scalar RSUExampleScenario.node[88].veinsmobility 	maxSpeed 	13.999949589611
scalar RSUExampleScenario.node[88].veinsmobility 	totalDistance 	3413.6901331992
scalar RSUExampleScenario.node[88].veinsmobility 	totalCO2Emission 	723.00990502758
scalar RSUExampleScenario.node[89].veinsmobility 	startTime 	267.1
scalar RSUExampleScenario.node[89].veinsmobility 	totalTime 	306.4
scalar RSUExampleScenario.node[89].veinsmobility 	stopTime 	573.6
scalar RSUExampleScenario.node[89].veinsmobility 	minSpeed 	0.25433284038166
scalar RSUExampleScenario.node[89].veinsmobility 	maxSpeed 	13.999998069417
scalar RSUExampleScenario.node[89].veinsmobility 	totalDistance 	3409.4046290684
scalar RSUExampleScenario.node[89].veinsmobility 	totalCO2Emission 	725.18876030681
scalar RSUExampleScenario.node[90].veinsmobility 	startTime 	270.1
scalar RSUExampleScenario.node[90].veinsmobility 	totalTime 	307
scalar RSUExampleScenario.node[90].veinsmobility 	stopTime 	577.2
scalar RSUExampleScenario.node[90].veinsmobility 	minSpeed 	0.24741668639472
scalar RSUExampleScenario.node[90].veinsmobility 	maxSpeed 	13.999888803207
scalar RSUExampleScenario.node[90].veinsmobility 	totalDistance 	3413.6798351861
scalar RSUExampleScenario.node[90].veinsmobility 	totalCO2Emission 	729.95789253464
scalar RSUExampleScenario.node[91].veinsmobility 	startTime 	273.1
scalar RSUExampleScenario.node[91].veinsmobility 	totalTime 	307.6
scalar RSUExampleScenario.node[91].veinsmobility 	stopTime 	580.8
scalar RSUExampleScenario.node[91].veinsmobility 	minSpeed 	0.25654135948326
scalar RSUExampleScenario.node[91].veinsmobility 	maxSpeed 	13.999973778089
scalar RSUExampleScenario.node[91].veinsmobility 	totalDistance 	3409.8141156391
scalar RSUExampleScenario.node[91].veinsmobility 	totalCO2Emission 	728.42389718158
scalar RSUExampleScenario.node[92].veinsmobility 	startTime 	276.1
scalar RSUExampleScenario.node[92].veinsmobility 	totalTime 	308.3
scalar RSUExampleScenario.node[92].veinsmobility 	stopTime 	584.5
scalar RSUExampleScenario.node[92].veinsmobility 	minSpeed 	0.25241688058362
scalar RSUExampleScenario.node[92].veinsmobility 	maxSpeed 	13.999981774497
scalar RSUExampleScenario.node[92].veinsmobility 	totalDistance 	3413.6646629193
scalar RSUExampleScenario.node[92].veinsmobility 	totalCO2Emission 	729.54875498645
scalar RSUExampleScenario.node[93].veinsmobility 	startTime 	279.1
scalar RSUExampleScenario.node[93].veinsmobility 	totalTime 	309.1
scalar RSUExampleScenario.node[93].veinsmobility 	stopTime 	588.3
scalar RSUExampleScenario.node[93].veinsmobility 	minSpeed 	0.24933649015403
scalar RSUExampleScenario.node[93].veinsmobility 	maxSpeed 	13.999993171059
scalar RSUExampleScenario.node[93].veinsmobility 	totalDistance 	3410.1173786981
scalar RSUExampleScenario.node[93].veinsmobility 	totalCO2Emission 	728.8180016329
scalar RSUExampleScenario.node[94].veinsmobility 	startTime 	282.1
scalar RSUExampleScenario.node[94].veinsmobility 	totalTime 	309.8
scalar RSUExampleScenario.node[94].veinsmobility 	stopTime 	592
scalar RSUExampleScenario.node[94].veinsmobility 	minSpeed 	0.24920875350898
scalar RSUExampleScenario.node[94].veinsmobility 	maxSpeed 	13.999879725596
scalar RSUExampleScenario.node[94].veinsmobility 	totalDistance 	3414.2266798447
scalar RSUExampleScenario.node[94].veinsmobility 	totalCO2Emission 	730.66847168436
scalar RSUExampleScenario.node[95].veinsmobility 	startTime 	285.1
scalar RSUExampleScenario.node[95].veinsmobility 	totalTime 	310.5
scalar RSUExampleScenario.node[95].veinsmobility 	stopTime 	595.7
scalar RSUExampleScenario.node[95].veinsmobility 	minSpeed 	0.2475878695522
scalar RSUExampleScenario.node[95].veinsmobility 	maxSpeed 	13.999995137176
scalar RSUExampleScenario.node[95].veinsmobility 	totalDistance 	3409.8453413227
scalar RSUExampleScenario.node[95].veinsmobility 	totalCO2Emission 	730.00566723913
scalar RSUExampleScenario.node[96].veinsmobility 	startTime 	288.1
scalar RSUExampleScenario.node[96].veinsmobility 	totalTime 	311.2
scalar RSUExampleScenario.node[96].veinsmobility 	stopTime 	599.4
scalar RSUExampleScenario.node[96].veinsmobility 	minSpeed 	0.25976301660086
scalar RSUExampleScenario.node[96].veinsmobility 	maxSpeed 	13.999892883119
scalar RSUExampleScenario.node[96].veinsmobility 	totalDistance 	3414.2948513521
scalar RSUExampleScenario.node[96].veinsmobility 	totalCO2Emission 	732.04261179061
scalar RSUExampleScenario.node[97].veinsmobility 	startTime 	291.1
scalar RSUExampleScenario.node[97].veinsmobility 	totalTime 	311.9
scalar RSUExampleScenario.node[97].veinsmobility 	stopTime 	603.1
scalar RSUExampleScenario.node[97].veinsmobility 	minSpeed 	0.25708594650589
scalar RSUExampleScenario.node[97].veinsmobility 	maxSpeed 	13.999917835046
scalar RSUExampleScenario.node[97].veinsmobility 	totalDistance 	3409.8011213697
scalar RSUExampleScenario.node[97].veinsmobility 	totalCO2Emission 	735.99847185019
scalar RSUExampleScenario.node[98].veinsmobility 	startTime 	294.1
scalar RSUExampleScenario.node[98].veinsmobility 	totalTime 	312.6
scalar RSUExampleScenario.node[98].veinsmobility 	stopTime 	606.8
scalar RSUExampleScenario.node[98].veinsmobility 	minSpeed 	0.249939943559
scalar RSUExampleScenario.node[98].veinsmobility 	maxSpeed 	13.999736730531
scalar RSUExampleScenario.node[98].veinsmobility 	totalDistance 	3413.6981612551
scalar RSUExampleScenario.node[98].veinsmobility 	totalCO2Emission 	732.10147659208
scalar RSUExampleScenario.node[99].veinsmobility 	startTime 	297.1
scalar RSUExampleScenario.node[99].veinsmobility 	totalTime 	313.3
scalar RSUExampleScenario.node[99].veinsmobility 	stopTime 	610.5
scalar RSUExampleScenario.node[99].veinsmobility 	minSpeed 	0.24836866172659
scalar RSUExampleScenario.node[99].veinsmobility 	maxSpeed 	13.999954479223
scalar RSUExampleScenario.node[99].veinsmobility 	totalDistance 	3409.6475864737
scalar RSUExampleScenario.node[99].veinsmobility 	totalCO2Emission 	737.10843233812
scalar RSUExampleScenario.node[100].veinsmobility 	startTime 	300.1
scalar RSUExampleScenario.node[100].veinsmobility 	totalTime 	314
scalar RSUExampleScenario.node[100].veinsmobility 	stopTime 	614.2
scalar RSUExampleScenario.node[100].veinsmobility 	minSpeed 	0.2495821885562
scalar RSUExampleScenario.node[100].veinsmobility 	maxSpeed 	13.999970566141
scalar RSUExampleScenario.node[100].veinsmobility 	totalDistance 	3413.9730762537
scalar RSUExampleScenario.node[100].veinsmobility 	totalCO2Emission 	738.35541799436
scalar RSUExampleScenario.node[101].veinsmobility 	startTime 	303.1
scalar RSUExampleScenario.node[101].veinsmobility 	totalTime 	314.6
scalar RSUExampleScenario.node[101].veinsmobility 	stopTime 	617.8
scalar RSUExampleScenario.node[101].veinsmobility 	minSpeed 	0.25437786599901
scalar RSUExampleScenario.node[101].veinsmobility 	maxSpeed 	13.999936938048
scalar RSUExampleScenario.node[101].veinsmobility 	totalDistance 	3410.1459310365
scalar RSUExampleScenario.node[101].veinsmobility 	totalCO2Emission 	738.01835750767
scalar RSUExampleScenario.node[102].veinsmobility 	startTime 	306.1
scalar RSUExampleScenario.node[102].veinsmobility 	totalTime 	315.3
scalar RSUExampleScenario.node[102].veinsmobility 	stopTime 	621.5
scalar RSUExampleScenario.node[102].veinsmobility 	minSpeed 	0.25977078966424
scalar RSUExampleScenario.node[102].veinsmobility 	maxSpeed 	13.999934160355
scalar RSUExampleScenario.node[102].veinsmobility 	totalDistance 	3413.8268346864
scalar RSUExampleScenario.node[102].veinsmobility 	totalCO2Emission 	737.64884487569
scalar RSUExampleScenario.node[103].veinsmobility 	startTime 	309.1
scalar RSUExampleScenario.node[103].veinsmobility 	totalTime 	316
scalar RSUExampleScenario.node[103].veinsmobility 	stopTime 	625.2
scalar RSUExampleScenario.node[103].veinsmobility 	minSpeed 	0.25590612132964
scalar RSUExampleScenario.node[103].veinsmobility 	maxSpeed 	13.999917862711
scalar RSUExampleScenario.node[103].veinsmobility 	totalDistance 	3409.6512553128
scalar RSUExampleScenario.node[103].veinsmobility 	totalCO2Emission 	740.38422028269
scalar RSUExampleScenario.node[104].veinsmobility 	startTime 	312.1
scalar RSUExampleScenario.node[104].veinsmobility 	totalTime 	316.7
scalar RSUExampleScenario.node[104].veinsmobility 	stopTime 	628.9
scalar RSUExampleScenario.node[104].veinsmobility 	minSpeed 	0.25819755972084
scalar RSUExampleScenario.node[104].veinsmobility 	maxSpeed 	13.999995571764
scalar RSUExampleScenario.node[104].veinsmobility 	totalDistance 	3413.7915018663
scalar RSUExampleScenario.node[104].veinsmobility 	totalCO2Emission 	737.20135510002
scalar RSUExampleScenario.node[105].veinsmobility 	startTime 	315.1
scalar RSUExampleScenario.node[105].veinsmobility 	totalTime 	317.5
scalar RSUExampleScenario.node[105].veinsmobility 	stopTime 	632.7
scalar RSUExampleScenario.node[105].veinsmobility 	minSpeed 	0.25517678328068
scalar RSUExampleScenario.node[105].veinsmobility 	maxSpeed 	13.999697129081
scalar RSUExampleScenario.node[105].veinsmobility 	totalDistance 	3409.9498207804
scalar RSUExampleScenario.node[105].veinsmobility 	totalCO2Emission 	739.37579576701
scalar RSUExampleScenario.node[106].veinsmobility 	startTime 	318.1
scalar RSUExampleScenario.node[106].veinsmobility 	totalTime 	318.1
scalar RSUExampleScenario.node[106].veinsmobility 	stopTime 	636.3
scalar RSUExampleScenario.node[106].veinsmobility 	minSpeed 	0.25220784421009
scalar RSUExampleScenario.node[106].veinsmobility 	maxSpeed 	13.999993097961
scalar RSUExampleScenario.node[106].veinsmobility 	totalDistance 	3413.9590951307
scalar RSUExampleScenario.node[106].veinsmobility 	totalCO2Emission 	744.11336892292
scalar RSUExampleScenario.node[107].veinsmobility 	startTime 	321.1
scalar RSUExampleScenario.node[107].veinsmobility 	totalTime 	318.8
scalar RSUExampleScenario.node[107].veinsmobility 	stopTime 	640
scalar RSUExampleScenario.node[107].veinsmobility 	minSpeed 	0.25274103101157
scalar RSUExampleScenario.node[107].veinsmobility 	maxSpeed 	13.999925272495
scalar RSUExampleScenario.node[107].veinsmobility 	totalDistance 	3409.475662707
scalar RSUExampleScenario.node[107].veinsmobility 	totalCO2Emission 	738.08149429066
scalar RSUExampleScenario.node[108].veinsmobility 	startTime 	324.1
scalar RSUExampleScenario.node[108].veinsmobility 	totalTime 	319.4
scalar RSUExampleScenario.node[108].veinsmobility 	stopTime 	643.6
scalar RSUExampleScenario.node[108].veinsmobility 	minSpeed 	0.25828393052309
scalar RSUExampleScenario.node[108].veinsmobility 	maxSpeed 	13.999808654827
scalar RSUExampleScenario.node[108].veinsmobility 	totalDistance 	3413.5514210917
scalar RSUExampleScenario.node[108].veinsmobility 	totalCO2Emission 	737.06140542042
scalar RSUExampleScenario.node[109].veinsmobility 	startTime 	327.1
scalar RSUExampleScenario.node[109].veinsmobility 	totalTime 	320
scalar RSUExampleScenario.node[109].veinsmobility 	stopTime 	647.2
scalar RSUExampleScenario.node[109].veinsmobility 	minSpeed 	0.2510312280939
scalar RSUExampleScenario.node[109].veinsmobility 	maxSpeed 	13.999948866267
scalar RSUExampleScenario.node[109].veinsmobility 	totalDistance 	3409.541211909
scalar RSUExampleScenario.node[109].veinsmobility 	totalCO2Emission 	744.64838492509
scalar RSUExampleScenario.node[110].veinsmobility 	startTime 	330.1
scalar RSUExampleScenario.node[110].veinsmobility 	totalTime 	320.7
scalar RSUExampleScenario.node[110].veinsmobility 	stopTime 	650.9
scalar RSUExampleScenario.node[110].veinsmobility 	minSpeed 	0.25630259425333
scalar RSUExampleScenario.node[110].veinsmobility 	maxSpeed 	13.999911790802
scalar RSUExampleScenario.node[110].veinsmobility 	totalDistance 	3409.6807451085
scalar RSUExampleScenario.node[110].veinsmobility 	totalCO2Emission 	744.66796121319
scalar RSUExampleScenario.node[111].veinsmobility 	startTime 	333.1
scalar RSUExampleScenario.node[111].veinsmobility 	totalTime 	321.3
scalar RSUExampleScenario.node[111].veinsmobility 	stopTime 	654.5
scalar RSUExampleScenario.node[111].veinsmobility 	minSpeed 	0.25882493259059
scalar RSUExampleScenario.node[111].veinsmobility 	maxSpeed 	13.999985534931
scalar RSUExampleScenario.node[111].veinsmobility 	totalDistance 	3413.807641924
scalar RSUExampleScenario.node[111].veinsmobility 	totalCO2Emission 	744.4137009752
scalar RSUExampleScenario.node[112].veinsmobility 	startTime 	336.1
scalar RSUExampleScenario.node[112].veinsmobility 	totalTime 	322
scalar RSUExampleScenario.node[112].veinsmobility 	stopTime 	658.2
scalar RSUExampleScenario.node[112].veinsmobility 	minSpeed 	0.25998929162323
scalar RSUExampleScenario.node[112].veinsmobility 	maxSpeed 	13.999960616813
scalar RSUExampleScenario.node[112].veinsmobility 	totalDistance 	3410.1083394308
scalar RSUExampleScenario.node[112].veinsmobility 	totalCO2Emission 	740.5907040919
scalar RSUExampleScenario.node[113].veinsmobility 	startTime 	339.1
scalar RSUExampleScenario.node[113].veinsmobility 	totalTime 	322.7
scalar RSUExampleScenario.node[113].veinsmobility 	stopTime 	661.9
scalar RSUExampleScenario.node[113].veinsmobility 	minSpeed 	0.24831356335408
scalar RSUExampleScenario.node[113].veinsmobility 	maxSpeed 	13.999957760212
scalar RSUExampleScenario.node[113].veinsmobility 	totalDistance 	3409.6612497066
scalar RSUExampleScenario.node[113].veinsmobility 	totalCO2Emission 	747.61709706301
scalar RSUExampleScenario.node[114].veinsmobility 	startTime 	342.1
scalar RSUExampleScenario.node[114].veinsmobility 	totalTime 	323.4
scalar RSUExampleScenario.node[114].veinsmobility 	stopTime 	665.6
scalar RSUExampleScenario.node[114].veinsmobility 	minSpeed 	0.24802184820035
scalar RSUExampleScenario.node[114].veinsmobility 	maxSpeed 	13.999992445807
scalar RSUExampleScenario.node[114].veinsmobility 	totalDistance 	3414.2666234721
scalar RSUExampleScenario.node[114].veinsmobility 	totalCO2Emission 	744.16348891253
scalar RSUExampleScenario.node[115].veinsmobility 	startTime 	345.1
scalar RSUExampleScenario.node[115].veinsmobility 	totalTime 	324.1
scalar RSUExampleScenario.node[115].veinsmobility 	stopTime 	669.3
scalar RSUExampleScenario.node[115].veinsmobility 	minSpeed 	0.25617798904004
scalar RSUExampleScenario.node[115].veinsmobility 	maxSpeed 	13.999639597787
scalar RSUExampleScenario.node[115].veinsmobility 	totalDistance 	3409.817080761
scalar RSUExampleScenario.node[115].veinsmobility 	totalCO2Emission 	744.53597984079
scalar RSUExampleScenario.node[116].veinsmobility 	startTime 	348.1
scalar RSUExampleScenario.node[116].veinsmobility 	totalTime 	324.8
scalar RSUExampleScenario.node[116].veinsmobility 	stopTime 	673
scalar RSUExampleScenario.node[116].veinsmobility 	minSpeed 	0.25912240998447
scalar RSUExampleScenario.node[116].veinsmobility 	maxSpeed 	13.999991291417
scalar RSUExampleScenario.node[116].veinsmobility 	totalDistance 	3414.1000313755
scalar RSUExampleScenario.node[116].veinsmobility 	totalCO2Emission 	749.19409870284
scalar RSUExampleScenario.node[117].veinsmobility 	startTime 	351.1
scalar RSUExampleScenario.node[117].veinsmobility 	totalTime 	325.5
scalar RSUExampleScenario.node[117].veinsmobility 	stopTime 	676.7
scalar RSUExampleScenario.node[117].veinsmobility 	minSpeed 	0.24991343043977
scalar RSUExampleScenario.node[117].veinsmobility 	maxSpeed 	13.999924701429
scalar RSUExampleScenario.node[117].veinsmobility 	totalDistance 	3409.9398072619
scalar RSUExampleScenario.node[117].veinsmobility 	totalCO2Emission 	749.87556443966
scalar RSUExampleScenario.node[118].veinsmobility 	startTime 	354.1
scalar RSUExampleScenario.node[118].veinsmobility 	totalTime 	326.2
scalar RSUExampleScenario.node[118].veinsmobility 	stopTime 	680.4
scalar RSUExampleScenario.node[118].veinsmobility 	minSpeed 	0.25737869044719
scalar RSUExampleScenario.node[118].veinsmobility 	maxSpeed 	13.999962553692
scalar RSUExampleScenario.node[118].veinsmobility 	totalDistance 	3413.8678960236
scalar RSUExampleScenario.node[118].veinsmobility 	totalCO2Emission 	749.44060248747
scalar RSUExampleScenario.node[119].veinsmobility 	startTime 	357.1
scalar RSUExampleScenario.node[119].veinsmobility 	totalTime 	326.8
scalar RSUExampleScenario.node[119].veinsmobility 	stopTime 	684
scalar RSUExampleScenario.node[119].veinsmobility 	minSpeed 	0.2531805016431
scalar RSUExampleScenario.node[119].veinsmobility 	maxSpeed 	13.999984026586
scalar RSUExampleScenario.node[119].veinsmobility 	totalDistance 	3409.4378841684
scalar RSUExampleScenario.node[119].veinsmobility 	totalCO2Emission 	744.93251969924
scalar RSUExampleScenario.node[120].veinsmobility 	startTime 	360.1
scalar RSUExampleScenario.node[120].veinsmobility 	totalTime 	327.5
scalar RSUExampleScenario.node[120].veinsmobility 	stopTime 	687.7
scalar RSUExampleScenario.node[120].veinsmobility 	minSpeed 	0.25229539205856
scalar RSUExampleScenario.node[120].veinsmobility 	maxSpeed 	13.999993384448
scalar RSUExampleScenario.node[120].veinsmobility 	totalDistance 	3413.8303285431
scalar RSUExampleScenario.node[120].veinsmobility 	totalCO2Emission 	748.9376604002
scalar RSUExampleScenario.node[121].veinsmobility 	startTime 	363.1
scalar RSUExampleScenario.node[121].veinsmobility 	totalTime 	328.2
scalar RSUExampleScenario.node[121].veinsmobility 	stopTime 	691.4
scalar RSUExampleScenario.node[121].veinsmobility 	minSpeed 	0.25210953106289
scalar RSUExampleScenario.node[121].veinsmobility 	maxSpeed 	13.999993625835
scalar RSUExampleScenario.node[121].veinsmobility 	totalDistance 	3409.6744476941
scalar RSUExampleScenario.node[121].veinsmobility 	totalCO2Emission 	747.92738113935
scalar RSUExampleScenario.node[122].veinsmobility 	startTime 	366.1
scalar RSUExampleScenario.node[122].veinsmobility 	totalTime 	328.9
scalar RSUExampleScenario.node[122].veinsmobility 	stopTime 	695.1
scalar RSUExampleScenario.node[122].veinsmobility 	minSpeed 	0.25134775206144
scalar RSUExampleScenario.node[122].veinsmobility 	maxSpeed 	13.999891463642
scalar RSUExampleScenario.node[122].veinsmobility 	totalDistance 	3414.3740174493
scalar RSUExampleScenario.node[122].veinsmobility 	totalCO2Emission 	752.25739492232
scalar RSUExampleScenario.node[123].veinsmobility 	startTime 	369.1
scalar RSUExampleScenario.node[123].veinsmobility 	totalTime 	329.6
scalar RSUExampleScenario.node[123].veinsmobility 	stopTime 	698.8
scalar RSUExampleScenario.node[123].veinsmobility 	minSpeed 	0.25408297454729
scalar RSUExampleScenario.node[123].veinsmobility 	maxSpeed 	13.999994931414
scalar RSUExampleScenario.node[123].veinsmobility 	totalDistance 	3410.1392270291
scalar RSUExampleScenario.node[123].veinsmobility 	totalCO2Emission 	750.96384655077
scalar RSUExampleScenario.node[124].veinsmobility 	startTime 	372.1
scalar RSUExampleScenario.node[124].veinsmobility 	totalTime 	330.3
scalar RSUExampleScenario.node[124].veinsmobility 	stopTime 	702.5
scalar RSUExampleScenario.node[124].veinsmobility 	minSpeed 	0.24919351261668
scalar RSUExampleScenario.node[124].veinsmobility 	maxSpeed 	13.999897190435
scalar RSUExampleScenario.node[124].veinsmobility 	totalDistance 	3414.2134049979
scalar RSUExampleScenario.node[124].veinsmobility 	totalCO2Emission 	751.40867252463
scalar RSUExampleScenario.node[125].veinsmobility 	startTime 	375.1
scalar RSUExampleScenario.node[125].veinsmobility 	totalTime 	331
scalar RSUExampleScenario.node[125].veinsmobility 	stopTime 	706.2
scalar RSUExampleScenario.node[125].veinsmobility 	minSpeed 	0.24981320003676
scalar RSUExampleScenario.node[125].veinsmobility 	maxSpeed 	13.99999263698
scalar RSUExampleScenario.node[125].veinsmobility 	totalDistance 	3409.7798812143
scalar RSUExampleScenario.node[125].veinsmobility 	totalCO2Emission 	756.01761290755
scalar RSUExampleScenario.node[126].veinsmobility 	startTime 	378.1
scalar RSUExampleScenario.node[126].veinsmobility 	totalTime 	331.7
scalar RSUExampleScenario.node[126].veinsmobility 	stopTime 	709.9
scalar RSUExampleScenario.node[126].veinsmobility 	minSpeed 	0.2494228474719
scalar RSUExampleScenario.node[126].veinsmobility 	maxSpeed 	13.999766000761
scalar RSUExampleScenario.node[126].veinsmobility 	totalDistance 	3414.2085397526
scalar RSUExampleScenario.node[126].veinsmobility 	totalCO2Emission 	752.38216495447
scalar RSUExampleScenario.node[127].veinsmobility 	startTime 	381.1
scalar RSUExampleScenario.node[127].veinsmobility 	totalTime 	332.4
scalar RSUExampleScenario.node[127].veinsmobility 	stopTime 	713.6
scalar RSUExampleScenario.node[127].veinsmobility 	minSpeed 	0.25657242155657
scalar RSUExampleScenario.node[127].veinsmobility 	maxSpeed 	13.999920294259
scalar RSUExampleScenario.node[127].veinsmobility 	totalDistance 	3409.7461513671
scalar RSUExampleScenario.node[127].veinsmobility 	totalCO2Emission 	753.96085524618
scalar RSUExampleScenario.node[128].veinsmobility 	startTime 	384.1
scalar RSUExampleScenario.node[128].veinsmobility 	totalTime 	333.1
scalar RSUExampleScenario.node[128].veinsmobility 	stopTime 	717.3
scalar RSUExampleScenario.node[128].veinsmobility 	minSpeed 	0.25435983110545
scalar RSUExampleScenario.node[128].veinsmobility 	maxSpeed 	13.999962715474
scalar RSUExampleScenario.node[128].veinsmobility 	totalDistance 	3414.197053721
scalar RSUExampleScenario.node[128].veinsmobility 	totalCO2Emission 	757.9440827689
scalar RSUExampleScenario.node[129].veinsmobility 	startTime 	387.1
scalar RSUExampleScenario.node[129].veinsmobility 	totalTime 	333.7
scalar RSUExampleScenario.node[129].veinsmobility 	stopTime 	720.9
scalar RSUExampleScenario.node[129].veinsmobility 	minSpeed 	0.25307738219132
scalar RSUExampleScenario.node[129].veinsmobility 	maxSpeed 	13.999995170955
scalar RSUExampleScenario.node[129].veinsmobility 	totalDistance 	3409.4625643702
scalar RSUExampleScenario.node[129].veinsmobility 	totalCO2Emission 	754.15627605676
scalar RSUExampleScenario.node[130].veinsmobility 	startTime 	390.1
scalar RSUExampleScenario.node[130].veinsmobility 	totalTime 	334.4
scalar RSUExampleScenario.node[130].veinsmobility 	stopTime 	724.6
scalar RSUExampleScenario.node[130].veinsmobility 	minSpeed 	0.24805913791433
scalar RSUExampleScenario.node[130].veinsmobility 	maxSpeed 	13.999908496041
scalar RSUExampleScenario.node[130].veinsmobility 	totalDistance 	3414.2119322458
scalar RSUExampleScenario.node[130].veinsmobility 	totalCO2Emission 	756.20139026877
scalar RSUExampleScenario.node[131].veinsmobility 	startTime 	393.1
scalar RSUExampleScenario.node[131].veinsmobility 	totalTime 	335
scalar RSUExampleScenario.node[131].veinsmobility 	stopTime 	728.2
scalar RSUExampleScenario.node[131].veinsmobility 	minSpeed 	0.25823128625448
scalar RSUExampleScenario.node[131].veinsmobility 	maxSpeed 	13.99991005339
scalar RSUExampleScenario.node[131].veinsmobility 	totalDistance 	3409.8040818432
scalar RSUExampleScenario.node[131].veinsmobility 	totalCO2Emission 	759.11893889377
scalar RSUExampleScenario.node[132].veinsmobility 	startTime 	396.1
scalar RSUExampleScenario.node[132].veinsmobility 	totalTime 	335.7
scalar RSUExampleScenario.node[132].veinsmobility 	stopTime 	731.9
scalar RSUExampleScenario.node[132].veinsmobility 	minSpeed 	0.25575113189453
scalar RSUExampleScenario.node[132].veinsmobility 	maxSpeed 	13.999972617463
scalar RSUExampleScenario.node[132].veinsmobility 	totalDistance 	3414.2608768281
scalar RSUExampleScenario.node[132].veinsmobility 	totalCO2Emission 	759.08999142091
scalar RSUExampleScenario.node[133].veinsmobility 	startTime 	399.1
scalar RSUExampleScenario.node[133].veinsmobility 	totalTime 	336.3
scalar RSUExampleScenario.node[133].veinsmobility 	stopTime 	735.5
scalar RSUExampleScenario.node[133].veinsmobility 	minSpeed 	0.24819610910024
scalar RSUExampleScenario.node[133].veinsmobility 	maxSpeed 	13.999964260897
scalar RSUExampleScenario.node[133].veinsmobility 	totalDistance 	3409.6772620245
scalar RSUExampleScenario.node[133].veinsmobility 	totalCO2Emission 	762.57406315039
scalar RSUExampleScenario.node[134].veinsmobility 	startTime 	402.1
scalar RSUExampleScenario.node[134].veinsmobility 	totalTime 	337.1
scalar RSUExampleScenario.node[134].veinsmobility 	stopTime 	739.3
scalar RSUExampleScenario.node[134].veinsmobility 	minSpeed 	0.25034831354977
scalar RSUExampleScenario.node[134].veinsmobility 	maxSpeed 	13.999994006394
scalar RSUExampleScenario.node[134].veinsmobility 	totalDistance 	3414.3165054225
scalar RSUExampleScenario.node[134].veinsmobility 	totalCO2Emission 	758.82381576984
scalar RSUExampleScenario.node[135].veinsmobility 	startTime 	405.1
scalar RSUExampleScenario.node[135].veinsmobility 	totalTime 	337.9
scalar RSUExampleScenario.node[135].veinsmobility 	stopTime 	743.1
scalar RSUExampleScenario.node[135].veinsmobility 	minSpeed 	0.2550715732798
scalar RSUExampleScenario.node[135].veinsmobility 	maxSpeed 	13.999925094307
scalar RSUExampleScenario.node[135].veinsmobility 	totalDistance 	3409.9426238002
scalar RSUExampleScenario.node[135].veinsmobility 	totalCO2Emission 	761.59807954784
scalar RSUExampleScenario.node[136].veinsmobility 	startTime 	408.1
scalar RSUExampleScenario.node[136].veinsmobility 	totalTime 	338.5
scalar RSUExampleScenario.node[136].veinsmobility 	stopTime 	746.7
scalar RSUExampleScenario.node[136].veinsmobility 	minSpeed 	0.24913351267111
scalar RSUExampleScenario.node[136].veinsmobility 	maxSpeed 	13.999988317981
scalar RSUExampleScenario.node[136].veinsmobility 	totalDistance 	3413.9416014895
scalar RSUExampleScenario.node[136].veinsmobility 	totalCO2Emission 	762.40158126786
scalar RSUExampleScenario.node[137].veinsmobility 	startTime 	411.1
scalar RSUExampleScenario.node[137].veinsmobility 	totalTime 	339.2
scalar RSUExampleScenario.node[137].veinsmobility 	stopTime 	750.4
scalar RSUExampleScenario.node[137].veinsmobility 	minSpeed 	0.25726191417198
scalar RSUExampleScenario.node[137].veinsmobility 	maxSpeed 	13.999997361207
scalar RSUExampleScenario.node[137].veinsmobility 	totalDistance 	3409.961968059
scalar RSUExampleScenario.node[137].veinsmobility 	totalCO2Emission 	760.34486281717
scalar RSUExampleScenario.node[138].veinsmobility 	startTime 	414.1
scalar RSUExampleScenario.node[138].veinsmobility 	totalTime 	339.8
scalar RSUExampleScenario.node[138].veinsmobility 	stopTime 	754
scalar RSUExampleScenario.node[138].veinsmobility 	minSpeed 	0.24704914274113
scalar RSUExampleScenario.node[138].veinsmobility 	maxSpeed 	13.999945904757
scalar RSUExampleScenario.node[138].veinsmobility 	totalDistance 	3413.7296144502
scalar RSUExampleScenario.node[138].veinsmobility 	totalCO2Emission 	758.10427854268
scalar RSUExampleScenario.node[139].veinsmobility 	startTime 	417.1
scalar RSUExampleScenario.node[139].veinsmobility 	totalTime 	340.5
scalar RSUExampleScenario.node[139].veinsmobility 	stopTime 	757.7
scalar RSUExampleScenario.node[139].veinsmobility 	minSpeed 	0.25660996281868
scalar RSUExampleScenario.node[139].veinsmobility 	maxSpeed 	13.999941396099
scalar RSUExampleScenario.node[139].veinsmobility 	totalDistance 	3409.8810297003
scalar RSUExampleScenario.node[139].veinsmobility 	totalCO2Emission 	760.86666653071
scalar RSUExampleScenario.node[140].veinsmobility 	startTime 	420.1
scalar RSUExampleScenario.node[140].veinsmobility 	totalTime 	341.2
scalar RSUExampleScenario.node[140].veinsmobility 	stopTime 	761.4
scalar RSUExampleScenario.node[140].veinsmobility 	minSpeed 	0.25519204121991
scalar RSUExampleScenario.node[140].veinsmobility 	maxSpeed 	13.999990206885
scalar RSUExampleScenario.node[140].veinsmobility 	totalDistance 	3410.0231951481
scalar RSUExampleScenario.node[140].veinsmobility 	totalCO2Emission 	759.95656192008
scalar RSUExampleScenario.node[141].veinsmobility 	startTime 	423.1
scalar RSUExampleScenario.node[141].veinsmobility 	totalTime 	341.9
scalar RSUExampleScenario.node[141].veinsmobility 	stopTime 	765.1
scalar RSUExampleScenario.node[141].veinsmobility 	minSpeed 	0.25865364160039
scalar RSUExampleScenario.node[141].veinsmobility 	maxSpeed 	13.999879798966
scalar RSUExampleScenario.node[141].veinsmobility 	totalDistance 	3414.1683699826
scalar RSUExampleScenario.node[141].veinsmobility 	totalCO2Emission 	765.89510365426
scalar RSUExampleScenario.node[142].veinsmobility 	startTime 	426.1
scalar RSUExampleScenario.node[142].veinsmobility 	totalTime 	342.6
scalar RSUExampleScenario.node[142].veinsmobility 	stopTime 	768.8
scalar RSUExampleScenario.node[142].veinsmobility 	minSpeed 	0.258417984623
scalar RSUExampleScenario.node[142].veinsmobility 	maxSpeed 	13.999968184354
scalar RSUExampleScenario.node[142].veinsmobility 	totalDistance 	3409.9772619324
scalar RSUExampleScenario.node[142].veinsmobility 	totalCO2Emission 	765.70949950231
scalar RSUExampleScenario.node[143].veinsmobility 	startTime 	429.1
scalar RSUExampleScenario.node[143].veinsmobility 	totalTime 	343.2
scalar RSUExampleScenario.node[143].veinsmobility 	stopTime 	772.4
scalar RSUExampleScenario.node[143].veinsmobility 	minSpeed 	0.25229581467528
scalar RSUExampleScenario.node[143].veinsmobility 	maxSpeed 	13.999740755295
scalar RSUExampleScenario.node[143].veinsmobility 	totalDistance 	3413.8380735193
scalar RSUExampleScenario.node[143].veinsmobility 	totalCO2Emission 	763.72746382308
scalar RSUExampleScenario.node[144].veinsmobility 	startTime 	432.1
scalar RSUExampleScenario.node[144].veinsmobility 	totalTime 	343.8
scalar RSUExampleScenario.node[144].veinsmobility 	stopTime 	776
scalar RSUExampleScenario.node[144].veinsmobility 	minSpeed 	0.25962514373777
scalar RSUExampleScenario.node[144].veinsmobility 	maxSpeed 	13.999994752107
scalar RSUExampleScenario.node[144].veinsmobility 	totalDistance 	3409.7671186397
scalar RSUExampleScenario.node[144].veinsmobility 	totalCO2Emission 	762.94936643737
scalar RSUExampleScenario.node[145].veinsmobility 	startTime 	435.1
scalar RSUExampleScenario.node[145].veinsmobility 	totalTime 	344.4
scalar RSUExampleScenario.node[145].veinsmobility 	stopTime 	779.6
scalar RSUExampleScenario.node[145].veinsmobility 	minSpeed 	0.25190546197724
scalar RSUExampleScenario.node[145].veinsmobility 	maxSpeed 	13.999947129732
scalar RSUExampleScenario.node[145].veinsmobility 	totalDistance 	3413.7288973687
scalar RSUExampleScenario.node[145].veinsmobility 	totalCO2Emission 	766.87492593045
scalar RSUExampleScenario.node[146].veinsmobility 	startTime 	438.1
scalar RSUExampleScenario.node[146].veinsmobility 	totalTime 	345.1
scalar RSUExampleScenario.node[146].veinsmobility 	stopTime 	783.3
scalar RSUExampleScenario.node[146].veinsmobility 	minSpeed 	0.24993668204756
scalar RSUExampleScenario.node[146].veinsmobility 	maxSpeed 	13.999965122838
scalar RSUExampleScenario.node[146].veinsmobility 	totalDistance 	3410.1976862662
scalar RSUExampleScenario.node[146].veinsmobility 	totalCO2Emission 	768.32458434697
scalar RSUExampleScenario.node[147].veinsmobility 	startTime 	441.1
scalar RSUExampleScenario.node[147].veinsmobility 	totalTime 	345.8
scalar RSUExampleScenario.node[147].veinsmobility 	stopTime 	787
scalar RSUExampleScenario.node[147].veinsmobility 	minSpeed 	0.25767423368967
scalar RSUExampleScenario.node[147].veinsmobility 	maxSpeed 	13.999903733919
scalar RSUExampleScenario.node[147].veinsmobility 	totalDistance 	3413.926813613
scalar RSUExampleScenario.node[147].veinsmobility 	totalCO2Emission 	768.55410278454
scalar RSUExampleScenario.node[148].veinsmobility 	startTime 	444.1
scalar RSUExampleScenario.node[148].veinsmobility 	totalTime 	346.5
scalar RSUExampleScenario.node[148].veinsmobility 	stopTime 	790.7
scalar RSUExampleScenario.node[148].veinsmobility 	minSpeed 	0.25797284155036
scalar RSUExampleScenario.node[148].veinsmobility 	maxSpeed 	13.999938614864
scalar RSUExampleScenario.node[148].veinsmobility 	totalDistance 	3409.8926262906
scalar RSUExampleScenario.node[148].veinsmobility 	totalCO2Emission 	768.97795188869
scalar RSUExampleScenario.node[149].veinsmobility 	startTime 	447.1
scalar RSUExampleScenario.node[149].veinsmobility 	totalTime 	347.2
scalar RSUExampleScenario.node[149].veinsmobility 	stopTime 	794.4
scalar RSUExampleScenario.node[149].veinsmobility 	minSpeed 	0.24832453182968
scalar RSUExampleScenario.node[149].veinsmobility 	maxSpeed 	13.999881220018
scalar RSUExampleScenario.node[149].veinsmobility 	totalDistance 	3413.796571125
scalar RSUExampleScenario.node[149].veinsmobility 	totalCO2Emission 	771.44892073057
scalar RSUExampleScenario.node[150].veinsmobility 	startTime 	450.1
scalar RSUExampleScenario.node[150].veinsmobility 	totalTime 	347.9
scalar RSUExampleScenario.node[150].veinsmobility 	stopTime 	798.1
scalar RSUExampleScenario.node[150].veinsmobility 	minSpeed 	0.25751783399051
scalar RSUExampleScenario.node[150].veinsmobility 	maxSpeed 	13.999952193778
scalar RSUExampleScenario.node[150].veinsmobility 	totalDistance 	3410.1051846387
scalar RSUExampleScenario.node[150].veinsmobility 	totalCO2Emission 	769.20084384714
scalar RSUExampleScenario.node[151].veinsmobility 	startTime 	453.1
scalar RSUExampleScenario.node[151].veinsmobility 	totalTime 	348.5
scalar RSUExampleScenario.node[151].veinsmobility 	stopTime 	801.7
scalar RSUExampleScenario.node[151].veinsmobility 	minSpeed 	0.25669663996017
scalar RSUExampleScenario.node[151].veinsmobility 	maxSpeed 	13.999959704354
scalar RSUExampleScenario.node[151].veinsmobility 	totalDistance 	3413.8281621621
scalar RSUExampleScenario.node[151].veinsmobility 	totalCO2Emission 	769.80950002507
scalar RSUExampleScenario.node[152].veinsmobility 	startTime 	456.1
scalar RSUExampleScenario.node[152].veinsmobility 	totalTime 	349.2
scalar RSUExampleScenario.node[152].veinsmobility 	stopTime 	805.4
scalar RSUExampleScenario.node[152].veinsmobility 	minSpeed 	0.25166844839789
scalar RSUExampleScenario.node[152].veinsmobility 	maxSpeed 	13.999961239153
scalar RSUExampleScenario.node[152].veinsmobility 	totalDistance 	3410.277022892
[...]
scalar RSUExampleScenario.node[628].veinsmobility 	totalCO2Emission 	322.06874233339
scalar RSUExampleScenario.node[629].veinsmobility 	startTime 	1887.1
scalar RSUExampleScenario.node[629].veinsmobility 	totalTime 	112.8
scalar RSUExampleScenario.node[629].veinsmobility 	stopTime 	2000
scalar RSUExampleScenario.node[629].veinsmobility 	minSpeed 	0.25075084441062
scalar RSUExampleScenario.node[629].veinsmobility 	maxSpeed 	13.999847790846
scalar RSUExampleScenario.node[629].veinsmobility 	totalDistance 	1361.5234299041
scalar RSUExampleScenario.node[629].veinsmobility 	totalCO2Emission 	316.51361217124
scalar RSUExampleScenario.node[630].veinsmobility 	startTime 	1890.1
scalar RSUExampleScenario.node[630].veinsmobility 	totalTime 	109.8
scalar RSUExampleScenario.node[630].veinsmobility 	stopTime 	2000
scalar RSUExampleScenario.node[630].veinsmobility 	minSpeed 	0.25158769779117
scalar RSUExampleScenario.node[630].veinsmobility 	maxSpeed 	13.999812750055
scalar RSUExampleScenario.node[630].veinsmobility 	totalDistance 	1320.7312750957
scalar RSUExampleScenario.node[630].veinsmobility 	totalCO2Emission 	309.96200266478
scalar RSUExampleScenario.node[631].veinsmobility 	startTime 	1893.1
scalar RSUExampleScenario.node[631].veinsmobility 	totalTime 	106.8
scalar RSUExampleScenario.node[631].veinsmobility 	stopTime 	2000
scalar RSUExampleScenario.node[631].veinsmobility 	minSpeed 	0.25725578017137
scalar RSUExampleScenario.node[631].veinsmobility 	maxSpeed 	13.999944475321
scalar RSUExampleScenario.node[631].veinsmobility 	totalDistance 	1279.1406574824
scalar RSUExampleScenario.node[631].veinsmobility 	totalCO2Emission 	302.28578829243
scalar RSUExampleScenario.node[632].veinsmobility 	startTime 	1896.1
scalar RSUExampleScenario.node[632].veinsmobility 	totalTime 	103.8
scalar RSUExampleScenario.node[632].veinsmobility 	stopTime 	2000
scalar RSUExampleScenario.node[632].veinsmobility 	minSpeed 	0.25417265661852
scalar RSUExampleScenario.node[632].veinsmobility 	maxSpeed 	13.999948535166
scalar RSUExampleScenario.node[632].veinsmobility 	totalDistance 	1238.3416067707
scalar RSUExampleScenario.node[632].veinsmobility 	totalCO2Emission 	297.08387106354
scalar RSUExampleScenario.node[633].veinsmobility 	startTime 	1899.1
scalar RSUExampleScenario.node[633].veinsmobility 	totalTime 	100.8
scalar RSUExampleScenario.node[633].veinsmobility 	stopTime 	2000
scalar RSUExampleScenario.node[633].veinsmobility 	minSpeed 	0.25285948905768
scalar RSUExampleScenario.node[633].veinsmobility 	maxSpeed 	13.999986406043
scalar RSUExampleScenario.node[633].veinsmobility 	totalDistance 	1194.4438726298
scalar RSUExampleScenario.node[633].veinsmobility 	totalCO2Emission 	289.36673534637
scalar RSUExampleScenario.node[634].veinsmobility 	startTime 	1902.1
scalar RSUExampleScenario.node[634].veinsmobility 	totalTime 	97.8
scalar RSUExampleScenario.node[634].veinsmobility 	stopTime 	2000
scalar RSUExampleScenario.node[634].veinsmobility 	minSpeed 	0.25295560039976
scalar RSUExampleScenario.node[634].veinsmobility 	maxSpeed 	13.999975870394
scalar RSUExampleScenario.node[634].veinsmobility 	totalDistance 	1153.5300386591
scalar RSUExampleScenario.node[634].veinsmobility 	totalCO2Emission 	282.65637079029
scalar RSUExampleScenario.node[635].veinsmobility 	startTime 	1905.1
scalar RSUExampleScenario.node[635].veinsmobility 	totalTime 	94.8
scalar RSUExampleScenario.node[635].veinsmobility 	stopTime 	2000
scalar RSUExampleScenario.node[635].veinsmobility 	minSpeed 	0.25881841991632
scalar RSUExampleScenario.node[635].veinsmobility 	maxSpeed 	13.999971602215
scalar RSUExampleScenario.node[635].veinsmobility 	totalDistance 	1112.0120174003
scalar RSUExampleScenario.node[635].veinsmobility 	totalCO2Emission 	271.37303275585
scalar RSUExampleScenario.node[636].veinsmobility 	startTime 	1908.1
scalar RSUExampleScenario.node[636].veinsmobility 	totalTime 	91.8
scalar RSUExampleScenario.node[636].veinsmobility 	stopTime 	2000
scalar RSUExampleScenario.node[636].veinsmobility 	minSpeed 	0.24839604116697
scalar RSUExampleScenario.node[636].veinsmobility 	maxSpeed 	13.999849880033
scalar RSUExampleScenario.node[636].veinsmobility 	totalDistance 	1070.5748246382
scalar RSUExampleScenario.node[636].veinsmobility 	totalCO2Emission 	268.95819053817
scalar RSUExampleScenario.node[637].veinsmobility 	startTime 	1911.1
scalar RSUExampleScenario.node[637].veinsmobility 	totalTime 	88.8
scalar RSUExampleScenario.node[637].veinsmobility 	stopTime 	2000
scalar RSUExampleScenario.node[637].veinsmobility 	minSpeed 	0.25058734587347
scalar RSUExampleScenario.node[637].veinsmobility 	maxSpeed 	13.999458131175
scalar RSUExampleScenario.node[637].veinsmobility 	totalDistance 	1028.3677207275
scalar RSUExampleScenario.node[637].veinsmobility 	totalCO2Emission 	261.84321385008
scalar RSUExampleScenario.node[638].veinsmobility 	startTime 	1914.1
scalar RSUExampleScenario.node[638].veinsmobility 	totalTime 	85.8
scalar RSUExampleScenario.node[638].veinsmobility 	stopTime 	2000
scalar RSUExampleScenario.node[638].veinsmobility 	minSpeed 	0.25985890788562
scalar RSUExampleScenario.node[638].veinsmobility 	maxSpeed 	13.999934144495
scalar RSUExampleScenario.node[638].veinsmobility 	totalDistance 	986.56073184806
scalar RSUExampleScenario.node[638].veinsmobility 	totalCO2Emission 	252.86288362867
scalar RSUExampleScenario.node[639].veinsmobility 	startTime 	1917.1
scalar RSUExampleScenario.node[639].veinsmobility 	totalTime 	82.8
scalar RSUExampleScenario.node[639].veinsmobility 	stopTime 	2000
scalar RSUExampleScenario.node[639].veinsmobility 	minSpeed 	0.24980865654908
scalar RSUExampleScenario.node[639].veinsmobility 	maxSpeed 	13.999476719834
scalar RSUExampleScenario.node[639].veinsmobility 	totalDistance 	953.40745208187
scalar RSUExampleScenario.node[639].veinsmobility 	totalCO2Emission 	230.94479340841
scalar RSUExampleScenario.node[640].veinsmobility 	startTime 	1920.1
scalar RSUExampleScenario.node[640].veinsmobility 	totalTime 	79.8
scalar RSUExampleScenario.node[640].veinsmobility 	stopTime 	2000
scalar RSUExampleScenario.node[640].veinsmobility 	minSpeed 	0.25785548730497
scalar RSUExampleScenario.node[640].veinsmobility 	maxSpeed 	13.999668858028
scalar RSUExampleScenario.node[640].veinsmobility 	totalDistance 	936.95852088383
scalar RSUExampleScenario.node[640].veinsmobility 	totalCO2Emission 	221.13423188535
scalar RSUExampleScenario.node[641].veinsmobility 	startTime 	1923.1
scalar RSUExampleScenario.node[641].veinsmobility 	totalTime 	76.8
scalar RSUExampleScenario.node[641].veinsmobility 	stopTime 	2000
scalar RSUExampleScenario.node[641].veinsmobility 	minSpeed 	0.25354054370988
scalar RSUExampleScenario.node[641].veinsmobility 	maxSpeed 	13.999510161143
scalar RSUExampleScenario.node[641].veinsmobility 	totalDistance 	912.20464394823
scalar RSUExampleScenario.node[641].veinsmobility 	totalCO2Emission 	217.68768565809
scalar RSUExampleScenario.node[642].veinsmobility 	startTime 	1926.1
scalar RSUExampleScenario.node[642].veinsmobility 	totalTime 	73.8
scalar RSUExampleScenario.node[642].veinsmobility 	stopTime 	2000
scalar RSUExampleScenario.node[642].veinsmobility 	minSpeed 	0.25288695569104
scalar RSUExampleScenario.node[642].veinsmobility 	maxSpeed 	13.999632390314
scalar RSUExampleScenario.node[642].veinsmobility 	totalDistance 	874.43468428427
scalar RSUExampleScenario.node[642].veinsmobility 	totalCO2Emission 	214.70928129537
scalar RSUExampleScenario.node[643].veinsmobility 	startTime 	1929.1
scalar RSUExampleScenario.node[643].veinsmobility 	totalTime 	70.8
scalar RSUExampleScenario.node[643].veinsmobility 	stopTime 	2000
scalar RSUExampleScenario.node[643].veinsmobility 	minSpeed 	0.25916925024916
scalar RSUExampleScenario.node[643].veinsmobility 	maxSpeed 	13.999720070881
scalar RSUExampleScenario.node[643].veinsmobility 	totalDistance 	833.7142848482
scalar RSUExampleScenario.node[643].veinsmobility 	totalCO2Emission 	207.62044268165
scalar RSUExampleScenario.node[644].veinsmobility 	startTime 	1932.1
scalar RSUExampleScenario.node[644].veinsmobility 	totalTime 	67.8
scalar RSUExampleScenario.node[644].veinsmobility 	stopTime 	2000
scalar RSUExampleScenario.node[644].veinsmobility 	minSpeed 	0.24819350105035
scalar RSUExampleScenario.node[644].veinsmobility 	maxSpeed 	13.999892641248
scalar RSUExampleScenario.node[644].veinsmobility 	totalDistance 	788.15713032604
scalar RSUExampleScenario.node[644].veinsmobility 	totalCO2Emission 	199.92757295715
scalar RSUExampleScenario.node[645].veinsmobility 	startTime 	1935.1
scalar RSUExampleScenario.node[645].veinsmobility 	totalTime 	64.8
scalar RSUExampleScenario.node[645].veinsmobility 	stopTime 	2000
scalar RSUExampleScenario.node[645].veinsmobility 	minSpeed 	0.2477991496732
scalar RSUExampleScenario.node[645].veinsmobility 	maxSpeed 	13.999075905625
scalar RSUExampleScenario.node[645].veinsmobility 	totalDistance 	745.77372167084
scalar RSUExampleScenario.node[645].veinsmobility 	totalCO2Emission 	192.34544994138
scalar RSUExampleScenario.node[646].veinsmobility 	startTime 	1938.1
scalar RSUExampleScenario.node[646].veinsmobility 	totalTime 	61.8
scalar RSUExampleScenario.node[646].veinsmobility 	stopTime 	2000
scalar RSUExampleScenario.node[646].veinsmobility 	minSpeed 	0.25908591887914
scalar RSUExampleScenario.node[646].veinsmobility 	maxSpeed 	13.999582747915
scalar RSUExampleScenario.node[646].veinsmobility 	totalDistance 	707.12079031093
scalar RSUExampleScenario.node[646].veinsmobility 	totalCO2Emission 	184.60965119643
scalar RSUExampleScenario.node[647].veinsmobility 	startTime 	1941.1
scalar RSUExampleScenario.node[647].veinsmobility 	totalTime 	58.8
scalar RSUExampleScenario.node[647].veinsmobility 	stopTime 	2000
scalar RSUExampleScenario.node[647].veinsmobility 	minSpeed 	0.25049365945393
scalar RSUExampleScenario.node[647].veinsmobility 	maxSpeed 	13.999905468789
scalar RSUExampleScenario.node[647].veinsmobility 	totalDistance 	664.95394287057
scalar RSUExampleScenario.node[647].veinsmobility 	totalCO2Emission 	177.26971760013
scalar RSUExampleScenario.node[648].veinsmobility 	startTime 	1944.1
scalar RSUExampleScenario.node[648].veinsmobility 	totalTime 	55.8
scalar RSUExampleScenario.node[648].veinsmobility 	stopTime 	2000
scalar RSUExampleScenario.node[648].veinsmobility 	minSpeed 	0.25199017094914
scalar RSUExampleScenario.node[648].veinsmobility 	maxSpeed 	13.998509813333
scalar RSUExampleScenario.node[648].veinsmobility 	totalDistance 	622.65079714775
scalar RSUExampleScenario.node[648].veinsmobility 	totalCO2Emission 	172.0849154208
scalar RSUExampleScenario.node[649].veinsmobility 	startTime 	1947.1
scalar RSUExampleScenario.node[649].veinsmobility 	totalTime 	52.8
scalar RSUExampleScenario.node[649].veinsmobility 	stopTime 	2000
scalar RSUExampleScenario.node[649].veinsmobility 	minSpeed 	0.25862231464288
scalar RSUExampleScenario.node[649].veinsmobility 	maxSpeed 	13.999686700823
scalar RSUExampleScenario.node[649].veinsmobility 	totalDistance 	581.66838560578
scalar RSUExampleScenario.node[649].veinsmobility 	totalCO2Emission 	166.59695803238
scalar RSUExampleScenario.node[650].veinsmobility 	startTime 	1950.1
scalar RSUExampleScenario.node[650].veinsmobility 	totalTime 	49.8
scalar RSUExampleScenario.node[650].veinsmobility 	stopTime 	2000
scalar RSUExampleScenario.node[650].veinsmobility 	minSpeed 	0.25048793964949
scalar RSUExampleScenario.node[650].veinsmobility 	maxSpeed 	13.999626139491
scalar RSUExampleScenario.node[650].veinsmobility 	totalDistance 	537.98007377834
scalar RSUExampleScenario.node[650].veinsmobility 	totalCO2Emission 	157.55615735266
scalar RSUExampleScenario.node[651].veinsmobility 	startTime 	1953.1
scalar RSUExampleScenario.node[651].veinsmobility 	totalTime 	46.8
scalar RSUExampleScenario.node[651].veinsmobility 	stopTime 	2000
scalar RSUExampleScenario.node[651].veinsmobility 	minSpeed 	0.25595774831856
scalar RSUExampleScenario.node[651].veinsmobility 	maxSpeed 	13.999042483687
scalar RSUExampleScenario.node[651].veinsmobility 	totalDistance 	496.82870262133
scalar RSUExampleScenario.node[651].veinsmobility 	totalCO2Emission 	150.18491260112
scalar RSUExampleScenario.node[652].veinsmobility 	startTime 	1956.1
scalar RSUExampleScenario.node[652].veinsmobility 	totalTime 	43.8
scalar RSUExampleScenario.node[652].veinsmobility 	stopTime 	2000
scalar RSUExampleScenario.node[652].veinsmobility 	minSpeed 	0.25325562996883
scalar RSUExampleScenario.node[652].veinsmobility 	maxSpeed 	13.99927929688
scalar RSUExampleScenario.node[652].veinsmobility 	totalDistance 	454.06793211659
scalar RSUExampleScenario.node[652].veinsmobility 	totalCO2Emission 	143.29292675831
scalar RSUExampleScenario.node[653].veinsmobility 	startTime 	1959.1
scalar RSUExampleScenario.node[653].veinsmobility 	totalTime 	40.8
scalar RSUExampleScenario.node[653].veinsmobility 	stopTime 	2000
scalar RSUExampleScenario.node[653].veinsmobility 	minSpeed 	0.25096953184577
scalar RSUExampleScenario.node[653].veinsmobility 	maxSpeed 	13.999495710966
scalar RSUExampleScenario.node[653].veinsmobility 	totalDistance 	412.48328569666
scalar RSUExampleScenario.node[653].veinsmobility 	totalCO2Emission 	136.135728263
scalar RSUExampleScenario.node[654].veinsmobility 	startTime 	1962.1
scalar RSUExampleScenario.node[654].veinsmobility 	totalTime 	37.8
scalar RSUExampleScenario.node[654].veinsmobility 	stopTime 	2000
scalar RSUExampleScenario.node[654].veinsmobility 	minSpeed 	0.24872531904886
scalar RSUExampleScenario.node[654].veinsmobility 	maxSpeed 	13.998747918333
scalar RSUExampleScenario.node[654].veinsmobility 	totalDistance 	370.50291291905
scalar RSUExampleScenario.node[654].veinsmobility 	totalCO2Emission 	128.9015261296
scalar RSUExampleScenario.node[655].veinsmobility 	startTime 	1965.1
scalar RSUExampleScenario.node[655].veinsmobility 	totalTime 	34.8
scalar RSUExampleScenario.node[655].veinsmobility 	stopTime 	2000
scalar RSUExampleScenario.node[655].veinsmobility 	minSpeed 	0.25559206970246
scalar RSUExampleScenario.node[655].veinsmobility 	maxSpeed 	13.996469634732
scalar RSUExampleScenario.node[655].veinsmobility 	totalDistance 	328.10390688875
scalar RSUExampleScenario.node[655].veinsmobility 	totalCO2Emission 	121.91034530906
scalar RSUExampleScenario.node[656].veinsmobility 	startTime 	1968.1
scalar RSUExampleScenario.node[656].veinsmobility 	totalTime 	31.8
scalar RSUExampleScenario.node[656].veinsmobility 	stopTime 	2000
scalar RSUExampleScenario.node[656].veinsmobility 	minSpeed 	0.25020897194184
scalar RSUExampleScenario.node[656].veinsmobility 	maxSpeed 	13.9957537859
scalar RSUExampleScenario.node[656].veinsmobility 	totalDistance 	288.05384436296
scalar RSUExampleScenario.node[656].veinsmobility 	totalCO2Emission 	115.36987303353
scalar RSUExampleScenario.node[657].veinsmobility 	startTime 	1971.1
scalar RSUExampleScenario.node[657].veinsmobility 	totalTime 	28.8
scalar RSUExampleScenario.node[657].veinsmobility 	stopTime 	2000
scalar RSUExampleScenario.node[657].veinsmobility 	minSpeed 	0.24918580687535
scalar RSUExampleScenario.node[657].veinsmobility 	maxSpeed 	13.881056202098
scalar RSUExampleScenario.node[657].veinsmobility 	totalDistance 	248.63275484154
scalar RSUExampleScenario.node[657].veinsmobility 	totalCO2Emission 	99.340207891028
scalar RSUExampleScenario.node[658].veinsmobility 	startTime 	1974.1
scalar RSUExampleScenario.node[658].veinsmobility 	totalTime 	25.8
scalar RSUExampleScenario.node[658].veinsmobility 	stopTime 	2000
scalar RSUExampleScenario.node[658].veinsmobility 	minSpeed 	0.2505431845584
scalar RSUExampleScenario.node[658].veinsmobility 	maxSpeed 	13.884757581595
scalar RSUExampleScenario.node[658].veinsmobility 	totalDistance 	225.7504289426
scalar RSUExampleScenario.node[658].veinsmobility 	totalCO2Emission 	82.492876735227
scalar RSUExampleScenario.node[659].veinsmobility 	startTime 	1977.1
scalar RSUExampleScenario.node[659].veinsmobility 	totalTime 	22.8
scalar RSUExampleScenario.node[659].veinsmobility 	stopTime 	2000
scalar RSUExampleScenario.node[659].veinsmobility 	minSpeed 	0.25422968360339
scalar RSUExampleScenario.node[659].veinsmobility 	maxSpeed 	13.876989198797
scalar RSUExampleScenario.node[659].veinsmobility 	totalDistance 	208.09369852056
scalar RSUExampleScenario.node[659].veinsmobility 	totalCO2Emission 	78.16117458416
scalar RSUExampleScenario.node[660].veinsmobility 	startTime 	1980.1
scalar RSUExampleScenario.node[660].veinsmobility 	totalTime 	19.8
scalar RSUExampleScenario.node[660].veinsmobility 	stopTime 	2000
scalar RSUExampleScenario.node[660].veinsmobility 	minSpeed 	0.25386419164389
scalar RSUExampleScenario.node[660].veinsmobility 	maxSpeed 	13.881336460805
scalar RSUExampleScenario.node[660].veinsmobility 	totalDistance 	172.15167508615
scalar RSUExampleScenario.node[660].veinsmobility 	totalCO2Emission 	75.259806288812
scalar RSUExampleScenario.node[661].veinsmobility 	startTime 	1983.1
scalar RSUExampleScenario.node[661].veinsmobility 	totalTime 	16.8
scalar RSUExampleScenario.node[661].veinsmobility 	stopTime 	2000
scalar RSUExampleScenario.node[661].veinsmobility 	minSpeed 	0.24745553219784
scalar RSUExampleScenario.node[661].veinsmobility 	maxSpeed 	13.874885162893
scalar RSUExampleScenario.node[661].veinsmobility 	totalDistance 	137.47688362567
scalar RSUExampleScenario.node[661].veinsmobility 	totalCO2Emission 	57.074148570583
scalar RSUExampleScenario.node[662].veinsmobility 	startTime 	1986.1
scalar RSUExampleScenario.node[662].veinsmobility 	totalTime 	13.8
scalar RSUExampleScenario.node[662].veinsmobility 	stopTime 	2000
scalar RSUExampleScenario.node[662].veinsmobility 	minSpeed 	0.25611594554852
scalar RSUExampleScenario.node[662].veinsmobility 	maxSpeed 	13.887596076995
scalar RSUExampleScenario.node[662].veinsmobility 	totalDistance 	116.69037533285
scalar RSUExampleScenario.node[662].veinsmobility 	totalCO2Emission 	43.313704792697
scalar RSUExampleScenario.node[663].veinsmobility 	startTime 	1989.1
scalar RSUExampleScenario.node[663].veinsmobility 	totalTime 	10.8
scalar RSUExampleScenario.node[663].veinsmobility 	stopTime 	2000
scalar RSUExampleScenario.node[663].veinsmobility 	minSpeed 	0.24868941880181
scalar RSUExampleScenario.node[663].veinsmobility 	maxSpeed 	13.888315866415
scalar RSUExampleScenario.node[663].veinsmobility 	totalDistance 	96.811811421268
scalar RSUExampleScenario.node[663].veinsmobility 	totalCO2Emission 	39.740049641287
scalar RSUExampleScenario.node[664].veinsmobility 	startTime 	1992.1
scalar RSUExampleScenario.node[664].veinsmobility 	totalTime 	7.8
scalar RSUExampleScenario.node[664].veinsmobility 	stopTime 	2000
scalar RSUExampleScenario.node[664].veinsmobility 	minSpeed 	0.24991502114036
scalar RSUExampleScenario.node[664].veinsmobility 	maxSpeed 	13.880961364151
scalar RSUExampleScenario.node[664].veinsmobility 	totalDistance 	61.10817849628
scalar RSUExampleScenario.node[664].veinsmobility 	totalCO2Emission 	35.767103981459
scalar RSUExampleScenario.node[665].veinsmobility 	startTime 	1995.1
scalar RSUExampleScenario.node[665].veinsmobility 	totalTime 	4.8
scalar RSUExampleScenario.node[665].veinsmobility 	stopTime 	2000
scalar RSUExampleScenario.node[665].veinsmobility 	minSpeed 	0.24713717801613
scalar RSUExampleScenario.node[665].veinsmobility 	maxSpeed 	10.083085531273
scalar RSUExampleScenario.node[665].veinsmobility 	totalDistance 	25.201067554828
scalar RSUExampleScenario.node[665].veinsmobility 	totalCO2Emission 	19.052865696159
scalar RSUExampleScenario.node[666].veinsmobility 	startTime 	1998.1
scalar RSUExampleScenario.node[666].veinsmobility 	totalTime 	1.8
scalar RSUExampleScenario.node[666].veinsmobility 	stopTime 	2000
scalar RSUExampleScenario.node[666].veinsmobility 	minSpeed 	0.25644024088141
scalar RSUExampleScenario.node[666].veinsmobility 	maxSpeed 	3.9007403006146
scalar RSUExampleScenario.node[666].veinsmobility 	totalDistance 	3.8634353124512
scalar RSUExampleScenario.node[666].veinsmobility 	totalCO2Emission 	3.9965586871484
