version 2
run statisticRVV-125-20150325-12:11:15-24464
attr c 14
attr configname statisticRVV
attr datetime 20150325-12:11:15
attr experiment statisticRVV
attr inifile omnetpp.ini
attr iterationvars "$sc=\"erlangen-medium.launchd.xml\", $p=1/15, $c=14"
attr iterationvars2 "$sc=\"erlangen-medium.launchd.xml\", $p=1/15, $c=14, $repetition=5"
attr measurement "$sc=\"erlangen-medium.launchd.xml\", $p=1/15, $c=14"
attr network RSUExampleScenario
attr p 1/15
attr processid 24464
attr repetition 5
attr replication #5
attr resultdir results
attr runnumber 125
attr sc "\"erlangen-medium.launchd.xml\""
attr seedset 125

scalar . 	c 	14
scalar RSUExampleScenario.node[0].veinsmobility 	startTime 	0.1
scalar RSUExampleScenario.node[0].veinsmobility 	totalTime 	264.3
scalar RSUExampleScenario.node[0].veinsmobility 	stopTime 	264.5
scalar RSUExampleScenario.node[0].veinsmobility 	minSpeed 	0.25341256185784
scalar RSUExampleScenario.node[0].veinsmobility 	maxSpeed 	13.99996040412
scalar RSUExampleScenario.node[0].veinsmobility 	totalDistance 	3409.484171246
scalar RSUExampleScenario.node[0].veinsmobility 	totalCO2Emission 	696.43875685002
scalar RSUExampleScenario.node[1].veinsmobility 	startTime 	3.1
scalar RSUExampleScenario.node[1].veinsmobility 	totalTime 	265.3
scalar RSUExampleScenario.node[1].veinsmobility 	stopTime 	268.5
scalar RSUExampleScenario.node[1].veinsmobility 	minSpeed 	0.24915503917029
scalar RSUExampleScenario.node[1].veinsmobility 	maxSpeed 	13.999990830405
scalar RSUExampleScenario.node[1].veinsmobility 	totalDistance 	3409.3426177801
scalar RSUExampleScenario.node[1].veinsmobility 	totalCO2Emission 	690.1655327654
scalar RSUExampleScenario.node[2].veinsmobility 	startTime 	6.1
scalar RSUExampleScenario.node[2].veinsmobility 	totalTime 	265.9
scalar RSUExampleScenario.node[2].veinsmobility 	stopTime 	272.1
scalar RSUExampleScenario.node[2].veinsmobility 	minSpeed 	0.25605968346889
scalar RSUExampleScenario.node[2].veinsmobility 	maxSpeed 	13.999950068058
scalar RSUExampleScenario.node[2].veinsmobility 	totalDistance 	3409.3437739211
scalar RSUExampleScenario.node[2].veinsmobility 	totalCO2Emission 	690.40624084692
scalar RSUExampleScenario.node[3].veinsmobility 	startTime 	9.1
scalar RSUExampleScenario.node[3].veinsmobility 	totalTime 	266.4
scalar RSUExampleScenario.node[3].veinsmobility 	stopTime 	275.6
scalar RSUExampleScenario.node[3].veinsmobility 	minSpeed 	0.25254310587561
scalar RSUExampleScenario.node[3].veinsmobility 	maxSpeed 	13.999932091811
scalar RSUExampleScenario.node[3].veinsmobility 	totalDistance 	3409.6248967923
scalar RSUExampleScenario.node[3].veinsmobility 	totalCO2Emission 	693.36809881875
scalar RSUExampleScenario.node[4].veinsmobility 	startTime 	12.1
scalar RSUExampleScenario.node[4].veinsmobility 	totalTime 	266.6
scalar RSUExampleScenario.node[4].veinsmobility 	stopTime 	278.8
scalar RSUExampleScenario.node[4].veinsmobility 	minSpeed 	0.24900303947646
scalar RSUExampleScenario.node[4].veinsmobility 	maxSpeed 	13.999968479557
scalar RSUExampleScenario.node[4].veinsmobility 	totalDistance 	3413.4302262201
scalar RSUExampleScenario.node[4].veinsmobility 	totalCO2Emission 	694.26712210309
scalar RSUExampleScenario.node[5].veinsmobility 	startTime 	15.1
scalar RSUExampleScenario.node[5].veinsmobility 	totalTime 	266.8
scalar RSUExampleScenario.node[5].veinsmobility 	stopTime 	282
scalar RSUExampleScenario.node[5].veinsmobility 	minSpeed 	0.2523113229943
scalar RSUExampleScenario.node[5].veinsmobility 	maxSpeed 	13.999791692528
scalar RSUExampleScenario.node[5].veinsmobility 	totalDistance 	3409.2363615952
scalar RSUExampleScenario.node[5].veinsmobility 	totalCO2Emission 	693.45013647587
scalar RSUExampleScenario.node[6].veinsmobility 	startTime 	18.1
scalar RSUExampleScenario.node[6].veinsmobility 	totalTime 	267
scalar RSUExampleScenario.node[6].veinsmobility 	stopTime 	285.2
scalar RSUExampleScenario.node[6].veinsmobility 	minSpeed 	0.25906996246683
scalar RSUExampleScenario.node[6].veinsmobility 	maxSpeed 	13.99989795676
scalar RSUExampleScenario.node[6].veinsmobility 	totalDistance 	3409.4514565935
scalar RSUExampleScenario.node[6].veinsmobility 	totalCO2Emission 	694.69953724234
scalar RSUExampleScenario.node[7].veinsmobility 	startTime 	21.1
scalar RSUExampleScenario.node[7].veinsmobility 	totalTime 	267.1
scalar RSUExampleScenario.node[7].veinsmobility 	stopTime 	288.3
scalar RSUExampleScenario.node[7].veinsmobility 	minSpeed 	0.25131807462429
scalar RSUExampleScenario.node[7].veinsmobility 	maxSpeed 	13.999951928721
scalar RSUExampleScenario.node[7].veinsmobility 	totalDistance 	3413.5971585318
scalar RSUExampleScenario.node[7].veinsmobility 	totalCO2Emission 	695.45350412096
scalar RSUExampleScenario.node[8].veinsmobility 	startTime 	24.1
scalar RSUExampleScenario.node[8].veinsmobility 	totalTime 	267.1
scalar RSUExampleScenario.node[8].veinsmobility 	stopTime 	291.3
scalar RSUExampleScenario.node[8].veinsmobility 	minSpeed 	0.24710016898625
scalar RSUExampleScenario.node[8].veinsmobility 	maxSpeed 	13.999914747439
scalar RSUExampleScenario.node[8].veinsmobility 	totalDistance 	3409.4646080719
scalar RSUExampleScenario.node[8].veinsmobility 	totalCO2Emission 	688.94277574717
scalar RSUExampleScenario.node[9].veinsmobility 	startTime 	27.1
scalar RSUExampleScenario.node[9].veinsmobility 	totalTime 	267.1
scalar RSUExampleScenario.node[9].veinsmobility 	stopTime 	294.3
scalar RSUExampleScenario.node[9].veinsmobility 	minSpeed 	0.25254638365307
scalar RSUExampleScenario.node[9].veinsmobility 	maxSpeed 	13.999973027806
scalar RSUExampleScenario.node[9].veinsmobility 	totalDistance 	3413.355531349
scalar RSUExampleScenario.node[9].veinsmobility 	totalCO2Emission 	689.44692659777
scalar RSUExampleScenario.node[10].veinsmobility 	startTime 	30.1
scalar RSUExampleScenario.node[10].veinsmobility 	totalTime 	267.1
scalar RSUExampleScenario.node[10].veinsmobility 	stopTime 	297.3
scalar RSUExampleScenario.node[10].veinsmobility 	minSpeed 	0.25334239738761
scalar RSUExampleScenario.node[10].veinsmobility 	maxSpeed 	13.999866494855
scalar RSUExampleScenario.node[10].veinsmobility 	totalDistance 	3409.6696663792
scalar RSUExampleScenario.node[10].veinsmobility 	totalCO2Emission 	693.11269300393
scalar RSUExampleScenario.node[11].veinsmobility 	startTime 	33.1
scalar RSUExampleScenario.node[11].veinsmobility 	totalTime 	267.1
scalar RSUExampleScenario.node[11].veinsmobility 	stopTime 	300.3
scalar RSUExampleScenario.node[11].veinsmobility 	minSpeed 	0.2593762635591
scalar RSUExampleScenario.node[11].veinsmobility 	maxSpeed 	13.999960391892
scalar RSUExampleScenario.node[11].veinsmobility 	totalDistance 	3413.7927313997
scalar RSUExampleScenario.node[11].veinsmobility 	totalCO2Emission 	688.87588942097
scalar RSUExampleScenario.node[12].veinsmobility 	startTime 	36.1
scalar RSUExampleScenario.node[12].veinsmobility 	totalTime 	267.1
scalar RSUExampleScenario.node[12].veinsmobility 	stopTime 	303.3
scalar RSUExampleScenario.node[12].veinsmobility 	minSpeed 	0.24907473590015
scalar RSUExampleScenario.node[12].veinsmobility 	maxSpeed 	13.99996525405
scalar RSUExampleScenario.node[12].veinsmobility 	totalDistance 	3409.6607853745
scalar RSUExampleScenario.node[12].veinsmobility 	totalCO2Emission 	692.72604528541
scalar RSUExampleScenario.node[13].veinsmobility 	startTime 	39.1
scalar RSUExampleScenario.node[13].veinsmobility 	totalTime 	267.1
scalar RSUExampleScenario.node[13].veinsmobility 	stopTime 	306.3
scalar RSUExampleScenario.node[13].veinsmobility 	minSpeed 	0.24878447937872
scalar RSUExampleScenario.node[13].veinsmobility 	maxSpeed 	13.999963282393
scalar RSUExampleScenario.node[13].veinsmobility 	totalDistance 	3413.5638085004
scalar RSUExampleScenario.node[13].veinsmobility 	totalCO2Emission 	689.8056719049
scalar RSUExampleScenario.node[14].veinsmobility 	startTime 	42.1
scalar RSUExampleScenario.node[14].veinsmobility 	totalTime 	267.1
scalar RSUExampleScenario.node[14].veinsmobility 	stopTime 	309.3
scalar RSUExampleScenario.node[14].veinsmobility 	minSpeed 	0.25787016174709
scalar RSUExampleScenario.node[14].veinsmobility 	maxSpeed 	13.999925356822
scalar RSUExampleScenario.node[14].veinsmobility 	totalDistance 	3409.2274182242
scalar RSUExampleScenario.node[14].veinsmobility 	totalCO2Emission 	688.56190492251
scalar RSUExampleScenario.node[15].veinsmobility 	startTime 	45.1
scalar RSUExampleScenario.node[15].veinsmobility 	totalTime 	267.1
scalar RSUExampleScenario.node[15].veinsmobility 	stopTime 	312.3
scalar RSUExampleScenario.node[15].veinsmobility 	minSpeed 	0.25617493426497
scalar RSUExampleScenario.node[15].veinsmobility 	maxSpeed 	13.999430016214
scalar RSUExampleScenario.node[15].veinsmobility 	totalDistance 	3413.6605748658
scalar RSUExampleScenario.node[15].veinsmobility 	totalCO2Emission 	692.27484070598
scalar RSUExampleScenario.node[16].veinsmobility 	startTime 	48.1
scalar RSUExampleScenario.node[16].veinsmobility 	totalTime 	267.1
scalar RSUExampleScenario.node[16].veinsmobility 	stopTime 	315.3
scalar RSUExampleScenario.node[16].veinsmobility 	minSpeed 	0.25040043469984
scalar RSUExampleScenario.node[16].veinsmobility 	maxSpeed 	13.999980297752
scalar RSUExampleScenario.node[16].veinsmobility 	totalDistance 	3409.6219169148
scalar RSUExampleScenario.node[16].veinsmobility 	totalCO2Emission 	689.25976485989
scalar RSUExampleScenario.node[17].veinsmobility 	startTime 	51.1
scalar RSUExampleScenario.node[17].veinsmobility 	totalTime 	267.1
scalar RSUExampleScenario.node[17].veinsmobility 	stopTime 	318.3
scalar RSUExampleScenario.node[17].veinsmobility 	minSpeed 	0.2505105963219
scalar RSUExampleScenario.node[17].veinsmobility 	maxSpeed 	13.999902906937
scalar RSUExampleScenario.node[17].veinsmobility 	totalDistance 	3414.0442151442
scalar RSUExampleScenario.node[17].veinsmobility 	totalCO2Emission 	691.38068735351
scalar RSUExampleScenario.node[18].veinsmobility 	startTime 	54.1
scalar RSUExampleScenario.node[18].veinsmobility 	totalTime 	267.1
scalar RSUExampleScenario.node[18].veinsmobility 	stopTime 	321.3
scalar RSUExampleScenario.node[18].veinsmobility 	minSpeed 	0.25904313258105
scalar RSUExampleScenario.node[18].veinsmobility 	maxSpeed 	13.999949654203
scalar RSUExampleScenario.node[18].veinsmobility 	totalDistance 	3409.6955031555
scalar RSUExampleScenario.node[18].veinsmobility 	totalCO2Emission 	694.08492285216
scalar RSUExampleScenario.node[19].veinsmobility 	startTime 	57.1
scalar RSUExampleScenario.node[19].veinsmobility 	totalTime 	267.1
scalar RSUExampleScenario.node[19].veinsmobility 	stopTime 	324.3
scalar RSUExampleScenario.node[19].veinsmobility 	minSpeed 	0.25874992610258
scalar RSUExampleScenario.node[19].veinsmobility 	maxSpeed 	13.999987500049
scalar RSUExampleScenario.node[19].veinsmobility 	totalDistance 	3409.6042201583
scalar RSUExampleScenario.node[19].veinsmobility 	totalCO2Emission 	690.46999218155
scalar RSUExampleScenario.node[20].veinsmobility 	startTime 	60.1
scalar RSUExampleScenario.node[20].veinsmobility 	totalTime 	267.1
scalar RSUExampleScenario.node[20].veinsmobility 	stopTime 	327.3
scalar RSUExampleScenario.node[20].veinsmobility 	minSpeed 	0.2529924788475
scalar RSUExampleScenario.node[20].veinsmobility 	maxSpeed 	13.999994232194
scalar RSUExampleScenario.node[20].veinsmobility 	totalDistance 	3413.7474866182
scalar RSUExampleScenario.node[20].veinsmobility 	totalCO2Emission 	693.83240868573
scalar RSUExampleScenario.node[21].veinsmobility 	startTime 	63.1
scalar RSUExampleScenario.node[21].veinsmobility 	totalTime 	267.2
scalar RSUExampleScenario.node[21].veinsmobility 	stopTime 	330.4
scalar RSUExampleScenario.node[21].veinsmobility 	minSpeed 	0.2480276711944
scalar RSUExampleScenario.node[21].veinsmobility 	maxSpeed 	13.999911243315
scalar RSUExampleScenario.node[21].veinsmobility 	totalDistance 	3410.1377395539
scalar RSUExampleScenario.node[21].veinsmobility 	totalCO2Emission 	690.05585628949
scalar RSUExampleScenario.node[22].veinsmobility 	startTime 	66.1
scalar RSUExampleScenario.node[22].veinsmobility 	totalTime 	267.3
scalar RSUExampleScenario.node[22].veinsmobility 	stopTime 	333.5
scalar RSUExampleScenario.node[22].veinsmobility 	minSpeed 	0.25806049594819
scalar RSUExampleScenario.node[22].veinsmobility 	maxSpeed 	13.999942360981
scalar RSUExampleScenario.node[22].veinsmobility 	totalDistance 	3414.3216209743
scalar RSUExampleScenario.node[22].veinsmobility 	totalCO2Emission 	690.94669843687
scalar RSUExampleScenario.node[23].veinsmobility 	startTime 	69.1
scalar RSUExampleScenario.node[23].veinsmobility 	totalTime 	267.4
scalar RSUExampleScenario.node[23].veinsmobility 	stopTime 	336.6
scalar RSUExampleScenario.node[23].veinsmobility 	minSpeed 	0.24926689256378
scalar RSUExampleScenario.node[23].veinsmobility 	maxSpeed 	13.999966000367
scalar RSUExampleScenario.node[23].veinsmobility 	totalDistance 	3409.9224310127
scalar RSUExampleScenario.node[23].veinsmobility 	totalCO2Emission 	692.56159757527
scalar RSUExampleScenario.node[24].veinsmobility 	startTime 	72.1
scalar RSUExampleScenario.node[24].veinsmobility 	totalTime 	267.5
scalar RSUExampleScenario.node[24].veinsmobility 	stopTime 	339.7
scalar RSUExampleScenario.node[24].veinsmobility 	minSpeed 	0.24788401955576
scalar RSUExampleScenario.node[24].veinsmobility 	maxSpeed 	13.999818659334
scalar RSUExampleScenario.node[24].veinsmobility 	totalDistance 	3414.1492449871
scalar RSUExampleScenario.node[24].veinsmobility 	totalCO2Emission 	693.02878471657
scalar RSUExampleScenario.node[25].veinsmobility 	startTime 	75.1
scalar RSUExampleScenario.node[25].veinsmobility 	totalTime 	267.6
scalar RSUExampleScenario.node[25].veinsmobility 	stopTime 	342.8
scalar RSUExampleScenario.node[25].veinsmobility 	minSpeed 	0.25406902915798
scalar RSUExampleScenario.node[25].veinsmobility 	maxSpeed 	13.999908042173
scalar RSUExampleScenario.node[25].veinsmobility 	totalDistance 	3409.6414158036
scalar RSUExampleScenario.node[25].veinsmobility 	totalCO2Emission 	691.06650879697
scalar RSUExampleScenario.node[26].veinsmobility 	startTime 	78.1
scalar RSUExampleScenario.node[26].veinsmobility 	totalTime 	267.8
scalar RSUExampleScenario.node[26].veinsmobility 	stopTime 	346
scalar RSUExampleScenario.node[26].veinsmobility 	minSpeed 	0.25464835708216
scalar RSUExampleScenario.node[26].veinsmobility 	maxSpeed 	13.999960357931
scalar RSUExampleScenario.node[26].veinsmobility 	totalDistance 	3414.0775391456
scalar RSUExampleScenario.node[26].veinsmobility 	totalCO2Emission 	685.66473829807
scalar RSUExampleScenario.node[27].veinsmobility 	startTime 	81.1
scalar RSUExampleScenario.node[27].veinsmobility 	totalTime 	267.9
scalar RSUExampleScenario.node[27].veinsmobility 	stopTime 	349.1
scalar RSUExampleScenario.node[27].veinsmobility 	minSpeed 	0.25445890474482
scalar RSUExampleScenario.node[27].veinsmobility 	maxSpeed 	13.999925261296
scalar RSUExampleScenario.node[27].veinsmobility 	totalDistance 	3409.2942602439
scalar RSUExampleScenario.node[27].veinsmobility 	totalCO2Emission 	692.02618415814
scalar RSUExampleScenario.node[28].veinsmobility 	startTime 	84.1
scalar RSUExampleScenario.node[28].veinsmobility 	totalTime 	268
scalar RSUExampleScenario.node[28].veinsmobility 	stopTime 	352.2
scalar RSUExampleScenario.node[28].veinsmobility 	minSpeed 	0.24910958372941
scalar RSUExampleScenario.node[28].veinsmobility 	maxSpeed 	13.999795113355
scalar RSUExampleScenario.node[28].veinsmobility 	totalDistance 	3413.6264949016
scalar RSUExampleScenario.node[28].veinsmobility 	totalCO2Emission 	690.17686270007
scalar RSUExampleScenario.node[29].veinsmobility 	startTime 	87.1
scalar RSUExampleScenario.node[29].veinsmobility 	totalTime 	268.1
scalar RSUExampleScenario.node[29].veinsmobility 	stopTime 	355.3
scalar RSUExampleScenario.node[29].veinsmobility 	minSpeed 	0.24882422097493
scalar RSUExampleScenario.node[29].veinsmobility 	maxSpeed 	13.999941182982
scalar RSUExampleScenario.node[29].veinsmobility 	totalDistance 	3409.3239923436
scalar RSUExampleScenario.node[29].veinsmobility 	totalCO2Emission 	690.51561391753
scalar RSUExampleScenario.node[30].veinsmobility 	startTime 	90.1
scalar RSUExampleScenario.node[30].veinsmobility 	totalTime 	268.3
scalar RSUExampleScenario.node[30].veinsmobility 	stopTime 	358.5
scalar RSUExampleScenario.node[30].veinsmobility 	minSpeed 	0.25344420837867
scalar RSUExampleScenario.node[30].veinsmobility 	maxSpeed 	13.999993835259
scalar RSUExampleScenario.node[30].veinsmobility 	totalDistance 	3413.7503104861
scalar RSUExampleScenario.node[30].veinsmobility 	totalCO2Emission 	692.34145821758
scalar RSUExampleScenario.node[31].veinsmobility 	startTime 	93.1
scalar RSUExampleScenario.node[31].veinsmobility 	totalTime 	268.5
scalar RSUExampleScenario.node[31].veinsmobility 	stopTime 	361.7
scalar RSUExampleScenario.node[31].veinsmobility 	minSpeed 	0.25651880920585
scalar RSUExampleScenario.node[31].veinsmobility 	maxSpeed 	13.999911770765
scalar RSUExampleScenario.node[31].veinsmobility 	totalDistance 	3409.3036564041
scalar RSUExampleScenario.node[31].veinsmobility 	totalCO2Emission 	688.96388845543
scalar RSUExampleScenario.node[32].veinsmobility 	startTime 	96.1
scalar RSUExampleScenario.node[32].veinsmobility 	totalTime 	268.8
scalar RSUExampleScenario.node[32].veinsmobility 	stopTime 	365
scalar RSUExampleScenario.node[32].veinsmobility 	minSpeed 	0.25140306880232
scalar RSUExampleScenario.node[32].veinsmobility 	maxSpeed 	13.999942209914
scalar RSUExampleScenario.node[32].veinsmobility 	totalDistance 	3413.9824798008
scalar RSUExampleScenario.node[32].veinsmobility 	totalCO2Emission 	691.38258492213
scalar RSUExampleScenario.node[33].veinsmobility 	startTime 	99.1
scalar RSUExampleScenario.node[33].veinsmobility 	totalTime 	269.1
scalar RSUExampleScenario.node[33].veinsmobility 	stopTime 	368.3
scalar RSUExampleScenario.node[33].veinsmobility 	minSpeed 	0.25722494706325
scalar RSUExampleScenario.node[33].veinsmobility 	maxSpeed 	13.999982033228
scalar RSUExampleScenario.node[33].veinsmobility 	totalDistance 	3409.735998588
scalar RSUExampleScenario.node[33].veinsmobility 	totalCO2Emission 	689.55932686053
scalar RSUExampleScenario.node[34].veinsmobility 	startTime 	102.1
scalar RSUExampleScenario.node[34].veinsmobility 	totalTime 	269.6
scalar RSUExampleScenario.node[34].veinsmobility 	stopTime 	371.8
scalar RSUExampleScenario.node[34].veinsmobility 	minSpeed 	0.25571772237564
scalar RSUExampleScenario.node[34].veinsmobility 	maxSpeed 	13.999983170819
scalar RSUExampleScenario.node[34].veinsmobility 	totalDistance 	3414.3355206262
scalar RSUExampleScenario.node[34].veinsmobility 	totalCO2Emission 	694.22759704785
scalar RSUExampleScenario.node[35].veinsmobility 	startTime 	105.1
scalar RSUExampleScenario.node[35].veinsmobility 	totalTime 	270.1
scalar RSUExampleScenario.node[35].veinsmobility 	stopTime 	375.3
scalar RSUExampleScenario.node[35].veinsmobility 	minSpeed 	0.25319155312562
scalar RSUExampleScenario.node[35].veinsmobility 	maxSpeed 	13.999985593953
scalar RSUExampleScenario.node[35].veinsmobility 	totalDistance 	3409.9333696066
scalar RSUExampleScenario.node[35].veinsmobility 	totalCO2Emission 	693.30240410438
scalar RSUExampleScenario.node[36].veinsmobility 	startTime 	108.1
scalar RSUExampleScenario.node[36].veinsmobility 	totalTime 	270.6
scalar RSUExampleScenario.node[36].veinsmobility 	stopTime 	378.8
scalar RSUExampleScenario.node[36].veinsmobility 	minSpeed 	0.25971600462589
scalar RSUExampleScenario.node[36].veinsmobility 	maxSpeed 	13.999962925292
scalar RSUExampleScenario.node[36].veinsmobility 	totalDistance 	3413.938879299
scalar RSUExampleScenario.node[36].veinsmobility 	totalCO2Emission 	696.06117978284
scalar RSUExampleScenario.node[37].veinsmobility 	startTime 	111.1
scalar RSUExampleScenario.node[37].veinsmobility 	totalTime 	271.1
scalar RSUExampleScenario.node[37].veinsmobility 	stopTime 	382.3
scalar RSUExampleScenario.node[37].veinsmobility 	minSpeed 	0.2476171289885
scalar RSUExampleScenario.node[37].veinsmobility 	maxSpeed 	13.999730572752
scalar RSUExampleScenario.node[37].veinsmobility 	totalDistance 	3409.4692781269
scalar RSUExampleScenario.node[37].veinsmobility 	totalCO2Emission 	691.50900751225
scalar RSUExampleScenario.node[38].veinsmobility 	startTime 	114.1
scalar RSUExampleScenario.node[38].veinsmobility 	totalTime 	271.7
scalar RSUExampleScenario.node[38].veinsmobility 	stopTime 	385.9
scalar RSUExampleScenario.node[38].veinsmobility 	minSpeed 	0.25877926463517
scalar RSUExampleScenario.node[38].veinsmobility 	maxSpeed 	13.999990913945
scalar RSUExampleScenario.node[38].veinsmobility 	totalDistance 	3413.7303382045
scalar RSUExampleScenario.node[38].veinsmobility 	totalCO2Emission 	691.39793968084
scalar RSUExampleScenario.node[39].veinsmobility 	startTime 	117.1
scalar RSUExampleScenario.node[39].veinsmobility 	totalTime 	272.4
scalar RSUExampleScenario.node[39].veinsmobility 	stopTime 	389.6
scalar RSUExampleScenario.node[39].veinsmobility 	minSpeed 	0.25570343164681
scalar RSUExampleScenario.node[39].veinsmobility 	maxSpeed 	13.99995865463
scalar RSUExampleScenario.node[39].veinsmobility 	totalDistance 	3410.1089353873
scalar RSUExampleScenario.node[39].veinsmobility 	totalCO2Emission 	693.76225114102
scalar RSUExampleScenario.node[40].veinsmobility 	startTime 	120.1
scalar RSUExampleScenario.node[40].veinsmobility 	totalTime 	273.1
scalar RSUExampleScenario.node[40].veinsmobility 	stopTime 	393.3
scalar RSUExampleScenario.node[40].veinsmobility 	minSpeed 	0.25010260726279
scalar RSUExampleScenario.node[40].veinsmobility 	maxSpeed 	13.999935679687
scalar RSUExampleScenario.node[40].veinsmobility 	totalDistance 	3413.7892474152
scalar RSUExampleScenario.node[40].veinsmobility 	totalCO2Emission 	695.55104112054
scalar RSUExampleScenario.node[41].veinsmobility 	startTime 	123.1
scalar RSUExampleScenario.node[41].veinsmobility 	totalTime 	273.7
scalar RSUExampleScenario.node[41].veinsmobility 	stopTime 	396.9
scalar RSUExampleScenario.node[41].veinsmobility 	minSpeed 	0.2519070485977
scalar RSUExampleScenario.node[41].veinsmobility 	maxSpeed 	13.999822706708
scalar RSUExampleScenario.node[41].veinsmobility 	totalDistance 	3409.5958460917
scalar RSUExampleScenario.node[41].veinsmobility 	totalCO2Emission 	694.63930337964
scalar RSUExampleScenario.node[42].veinsmobility 	startTime 	126.1
scalar RSUExampleScenario.node[42].veinsmobility 	totalTime 	274.4
scalar RSUExampleScenario.node[42].veinsmobility 	stopTime 	400.6
scalar RSUExampleScenario.node[42].veinsmobility 	minSpeed 	0.24806644327077
scalar RSUExampleScenario.node[42].veinsmobility 	maxSpeed 	13.99999373253
scalar RSUExampleScenario.node[42].veinsmobility 	totalDistance 	3414.1825488755
scalar RSUExampleScenario.node[42].veinsmobility 	totalCO2Emission 	695.94903877673
scalar RSUExampleScenario.node[43].veinsmobility 	startTime 	129.1
scalar RSUExampleScenario.node[43].veinsmobility 	totalTime 	275.1
scalar RSUExampleScenario.node[43].veinsmobility 	stopTime 	404.3
scalar RSUExampleScenario.node[43].veinsmobility 	minSpeed 	0.25219175504544
scalar RSUExampleScenario.node[43].veinsmobility 	maxSpeed 	13.999960754805
scalar RSUExampleScenario.node[43].veinsmobility 	totalDistance 	3409.8947656182
scalar RSUExampleScenario.node[43].veinsmobility 	totalCO2Emission 	698.4495189344
scalar RSUExampleScenario.node[44].veinsmobility 	startTime 	132.1
scalar RSUExampleScenario.node[44].veinsmobility 	totalTime 	275.8
scalar RSUExampleScenario.node[44].veinsmobility 	stopTime 	408
scalar RSUExampleScenario.node[44].veinsmobility 	minSpeed 	0.25837733282009
scalar RSUExampleScenario.node[44].veinsmobility 	maxSpeed 	13.999940882905
scalar RSUExampleScenario.node[44].veinsmobility 	totalDistance 	3413.6780466674
scalar RSUExampleScenario.node[44].veinsmobility 	totalCO2Emission 	699.0554063255
scalar RSUExampleScenario.node[45].veinsmobility 	startTime 	135.1
scalar RSUExampleScenario.node[45].veinsmobility 	totalTime 	276.6
scalar RSUExampleScenario.node[45].veinsmobility 	stopTime 	411.8
scalar RSUExampleScenario.node[45].veinsmobility 	minSpeed 	0.25653686994524
scalar RSUExampleScenario.node[45].veinsmobility 	maxSpeed 	13.999923355109
scalar RSUExampleScenario.node[45].veinsmobility 	totalDistance 	3409.7154104343
scalar RSUExampleScenario.node[45].veinsmobility 	totalCO2Emission 	697.90688035623
scalar RSUExampleScenario.node[46].veinsmobility 	startTime 	138.1
scalar RSUExampleScenario.node[46].veinsmobility 	totalTime 	277.3
scalar RSUExampleScenario.node[46].veinsmobility 	stopTime 	415.5
scalar RSUExampleScenario.node[46].veinsmobility 	minSpeed 	0.25914550731634
scalar RSUExampleScenario.node[46].veinsmobility 	maxSpeed 	13.999997493296
scalar RSUExampleScenario.node[46].veinsmobility 	totalDistance 	3413.7293298668
scalar RSUExampleScenario.node[46].veinsmobility 	totalCO2Emission 	696.98031845636
scalar RSUExampleScenario.node[47].veinsmobility 	startTime 	141.1
scalar RSUExampleScenario.node[47].veinsmobility 	totalTime 	278
scalar RSUExampleScenario.node[47].veinsmobility 	stopTime 	419.2
scalar RSUExampleScenario.node[47].veinsmobility 	minSpeed 	0.25237354363222
scalar RSUExampleScenario.node[47].veinsmobility 	maxSpeed 	13.999999741663
scalar RSUExampleScenario.node[47].veinsmobility 	totalDistance 	3409.8989284526
scalar RSUExampleScenario.node[47].veinsmobility 	totalCO2Emission 	696.97190617496
scalar RSUExampleScenario.node[48].veinsmobility 	startTime 	144.1
scalar RSUExampleScenario.node[48].veinsmobility 	totalTime 	278.6
scalar RSUExampleScenario.node[48].veinsmobility 	stopTime 	422.8
scalar RSUExampleScenario.node[48].veinsmobility 	minSpeed 	0.25041293379106
scalar RSUExampleScenario.node[48].veinsmobility 	maxSpeed 	13.999982117796
scalar RSUExampleScenario.node[48].veinsmobility 	totalDistance 	3413.5223184474
scalar RSUExampleScenario.node[48].veinsmobility 	totalCO2Emission 	695.60235436384
scalar RSUExampleScenario.node[49].veinsmobility 	startTime 	147.1
scalar RSUExampleScenario.node[49].veinsmobility 	totalTime 	279.3
scalar RSUExampleScenario.node[49].veinsmobility 	stopTime 	426.5
scalar RSUExampleScenario.node[49].veinsmobility 	minSpeed 	0.25591487978236
scalar RSUExampleScenario.node[49].veinsmobility 	maxSpeed 	13.999875059878
scalar RSUExampleScenario.node[49].veinsmobility 	totalDistance 	3409.9340485778
scalar RSUExampleScenario.node[49].veinsmobility 	totalCO2Emission 	702.57173991351
scalar RSUExampleScenario.node[50].veinsmobility 	startTime 	150.1
scalar RSUExampleScenario.node[50].veinsmobility 	totalTime 	280.1
scalar RSUExampleScenario.node[50].veinsmobility 	stopTime 	430.3
scalar RSUExampleScenario.node[50].veinsmobility 	minSpeed 	0.25290151390713
scalar RSUExampleScenario.node[50].veinsmobility 	maxSpeed 	13.999908656613
scalar RSUExampleScenario.node[50].veinsmobility 	totalDistance 	3414.2447621064
scalar RSUExampleScenario.node[50].veinsmobility 	totalCO2Emission 	701.83946610338
scalar RSUExampleScenario.node[51].veinsmobility 	startTime 	153.1
scalar RSUExampleScenario.node[51].veinsmobility 	totalTime 	280.8
scalar RSUExampleScenario.node[51].veinsmobility 	stopTime 	434
scalar RSUExampleScenario.node[51].veinsmobility 	minSpeed 	0.2594299337822
scalar RSUExampleScenario.node[51].veinsmobility 	maxSpeed 	13.999991795167
scalar RSUExampleScenario.node[51].veinsmobility 	totalDistance 	3409.5591025692
scalar RSUExampleScenario.node[51].veinsmobility 	totalCO2Emission 	702.82015117156
scalar RSUExampleScenario.node[52].veinsmobility 	startTime 	156.1
scalar RSUExampleScenario.node[52].veinsmobility 	totalTime 	281.5
scalar RSUExampleScenario.node[52].veinsmobility 	stopTime 	437.7
scalar RSUExampleScenario.node[52].veinsmobility 	minSpeed 	0.24893161268905
scalar RSUExampleScenario.node[52].veinsmobility 	maxSpeed 	13.999838274773
scalar RSUExampleScenario.node[52].veinsmobility 	totalDistance 	3414.1706183861
scalar RSUExampleScenario.node[52].veinsmobility 	totalCO2Emission 	700.96335182097
scalar RSUExampleScenario.node[53].veinsmobility 	startTime 	159.1
scalar RSUExampleScenario.node[53].veinsmobility 	totalTime 	282.3
scalar RSUExampleScenario.node[53].veinsmobility 	stopTime 	441.5
scalar RSUExampleScenario.node[53].veinsmobility 	minSpeed 	0.25078465019492
scalar RSUExampleScenario.node[53].veinsmobility 	maxSpeed 	13.999949442388
scalar RSUExampleScenario.node[53].veinsmobility 	totalDistance 	3409.8667796921
scalar RSUExampleScenario.node[53].veinsmobility 	totalCO2Emission 	707.06015494032
scalar RSUExampleScenario.node[54].veinsmobility 	startTime 	162.1
scalar RSUExampleScenario.node[54].veinsmobility 	totalTime 	283
scalar RSUExampleScenario.node[54].veinsmobility 	stopTime 	445.2
scalar RSUExampleScenario.node[54].veinsmobility 	minSpeed 	0.24859639798431
scalar RSUExampleScenario.node[54].veinsmobility 	maxSpeed 	13.999828053063
scalar RSUExampleScenario.node[54].veinsmobility 	totalDistance 	3414.1260430141
scalar RSUExampleScenario.node[54].veinsmobility 	totalCO2Emission 	700.22983296287
scalar RSUExampleScenario.node[55].veinsmobility 	startTime 	165.1
scalar RSUExampleScenario.node[55].veinsmobility 	totalTime 	283.7
scalar RSUExampleScenario.node[55].veinsmobility 	stopTime 	448.9
scalar RSUExampleScenario.node[55].veinsmobility 	minSpeed 	0.24808487093076
scalar RSUExampleScenario.node[55].veinsmobility 	maxSpeed 	13.999961514622
scalar RSUExampleScenario.node[55].veinsmobility 	totalDistance 	3409.8408113967
scalar RSUExampleScenario.node[55].veinsmobility 	totalCO2Emission 	701.73353778845
scalar RSUExampleScenario.node[56].veinsmobility 	startTime 	168.1
scalar RSUExampleScenario.node[56].veinsmobility 	totalTime 	284.5
scalar RSUExampleScenario.node[56].veinsmobility 	stopTime 	452.7
scalar RSUExampleScenario.node[56].veinsmobility 	minSpeed 	0.25938559321407
scalar RSUExampleScenario.node[56].veinsmobility 	maxSpeed 	13.9999087963
scalar RSUExampleScenario.node[56].veinsmobility 	totalDistance 	3414.3711750406
scalar RSUExampleScenario.node[56].veinsmobility 	totalCO2Emission 	705.88595446546
scalar RSUExampleScenario.node[57].veinsmobility 	startTime 	171.1
scalar RSUExampleScenario.node[57].veinsmobility 	totalTime 	285.1
scalar RSUExampleScenario.node[57].veinsmobility 	stopTime 	456.3
scalar RSUExampleScenario.node[57].veinsmobility 	minSpeed 	0.25535520050442
scalar RSUExampleScenario.node[57].veinsmobility 	maxSpeed 	13.99995012027
scalar RSUExampleScenario.node[57].veinsmobility 	totalDistance 	3409.4097931212
scalar RSUExampleScenario.node[57].veinsmobility 	totalCO2Emission 	708.58471657453
scalar RSUExampleScenario.node[58].veinsmobility 	startTime 	174.1
scalar RSUExampleScenario.node[58].veinsmobility 	totalTime 	285.8
scalar RSUExampleScenario.node[58].veinsmobility 	stopTime 	460
scalar RSUExampleScenario.node[58].veinsmobility 	minSpeed 	0.24714922509133
scalar RSUExampleScenario.node[58].veinsmobility 	maxSpeed 	13.999962660749
scalar RSUExampleScenario.node[58].veinsmobility 	totalDistance 	3414.1944664857
scalar RSUExampleScenario.node[58].veinsmobility 	totalCO2Emission 	703.37472315041
scalar RSUExampleScenario.node[59].veinsmobility 	startTime 	177.1
scalar RSUExampleScenario.node[59].veinsmobility 	totalTime 	286.5
scalar RSUExampleScenario.node[59].veinsmobility 	stopTime 	463.7
scalar RSUExampleScenario.node[59].veinsmobility 	minSpeed 	0.2490805675115
scalar RSUExampleScenario.node[59].veinsmobility 	maxSpeed 	13.999907370224
scalar RSUExampleScenario.node[59].veinsmobility 	totalDistance 	3409.927827705
scalar RSUExampleScenario.node[59].veinsmobility 	totalCO2Emission 	705.8056265451
scalar RSUExampleScenario.node[60].veinsmobility 	startTime 	180.1
scalar RSUExampleScenario.node[60].veinsmobility 	totalTime 	287.2
scalar RSUExampleScenario.node[60].veinsmobility 	stopTime 	467.4
scalar RSUExampleScenario.node[60].veinsmobility 	minSpeed 	0.25681519121048
scalar RSUExampleScenario.node[60].veinsmobility 	maxSpeed 	13.999991243866
scalar RSUExampleScenario.node[60].veinsmobility 	totalDistance 	3413.6022949104
scalar RSUExampleScenario.node[60].veinsmobility 	totalCO2Emission 	707.61612704204
scalar RSUExampleScenario.node[61].veinsmobility 	startTime 	183.1
scalar RSUExampleScenario.node[61].veinsmobility 	totalTime 	288
scalar RSUExampleScenario.node[61].veinsmobility 	stopTime 	471.2
scalar RSUExampleScenario.node[61].veinsmobility 	minSpeed 	0.25967668775609
scalar RSUExampleScenario.node[61].veinsmobility 	maxSpeed 	13.999975944217
scalar RSUExampleScenario.node[61].veinsmobility 	totalDistance 	3410.1576017
scalar RSUExampleScenario.node[61].veinsmobility 	totalCO2Emission 	707.48152638409
scalar RSUExampleScenario.node[62].veinsmobility 	startTime 	186.1
scalar RSUExampleScenario.node[62].veinsmobility 	totalTime 	288.8
scalar RSUExampleScenario.node[62].veinsmobility 	stopTime 	475
scalar RSUExampleScenario.node[62].veinsmobility 	minSpeed 	0.2536307738435
scalar RSUExampleScenario.node[62].veinsmobility 	maxSpeed 	13.999985175952
scalar RSUExampleScenario.node[62].veinsmobility 	totalDistance 	3414.152331457
scalar RSUExampleScenario.node[62].veinsmobility 	totalCO2Emission 	710.51985842648
scalar RSUExampleScenario.node[63].veinsmobility 	startTime 	189.1
scalar RSUExampleScenario.node[63].veinsmobility 	totalTime 	289.5
scalar RSUExampleScenario.node[63].veinsmobility 	stopTime 	478.7
scalar RSUExampleScenario.node[63].veinsmobility 	minSpeed 	0.25714534996031
scalar RSUExampleScenario.node[63].veinsmobility 	maxSpeed 	13.999929359218
scalar RSUExampleScenario.node[63].veinsmobility 	totalDistance 	3409.698853102
scalar RSUExampleScenario.node[63].veinsmobility 	totalCO2Emission 	708.02813815522
scalar RSUExampleScenario.node[64].veinsmobility 	startTime 	192.1
scalar RSUExampleScenario.node[64].veinsmobility 	totalTime 	290.2
scalar RSUExampleScenario.node[64].veinsmobility 	stopTime 	482.4
scalar RSUExampleScenario.node[64].veinsmobility 	minSpeed 	0.25180112117296
scalar RSUExampleScenario.node[64].veinsmobility 	maxSpeed 	13.999975490591
scalar RSUExampleScenario.node[64].veinsmobility 	totalDistance 	3414.2176624829
scalar RSUExampleScenario.node[64].veinsmobility 	totalCO2Emission 	713.18960781621
scalar RSUExampleScenario.node[65].veinsmobility 	startTime 	195.1
scalar RSUExampleScenario.node[65].veinsmobility 	totalTime 	290.9
scalar RSUExampleScenario.node[65].veinsmobility 	stopTime 	486.1
scalar RSUExampleScenario.node[65].veinsmobility 	minSpeed 	0.24860675821872
scalar RSUExampleScenario.node[65].veinsmobility 	maxSpeed 	13.999998598562
scalar RSUExampleScenario.node[65].veinsmobility 	totalDistance 	3409.6496234456
scalar RSUExampleScenario.node[65].veinsmobility 	totalCO2Emission 	709.78013603031
scalar RSUExampleScenario.node[66].veinsmobility 	startTime 	198.1
scalar RSUExampleScenario.node[66].veinsmobility 	totalTime 	291.6
scalar RSUExampleScenario.node[66].veinsmobility 	stopTime 	489.8
scalar RSUExampleScenario.node[66].veinsmobility 	minSpeed 	0.24935154752247
scalar RSUExampleScenario.node[66].veinsmobility 	maxSpeed 	13.999937409775
scalar RSUExampleScenario.node[66].veinsmobility 	totalDistance 	3414.0307053707
scalar RSUExampleScenario.node[66].veinsmobility 	totalCO2Emission 	714.52141314584
scalar RSUExampleScenario.node[67].veinsmobility 	startTime 	201.1
scalar RSUExampleScenario.node[67].veinsmobility 	totalTime 	292.2
scalar RSUExampleScenario.node[67].veinsmobility 	stopTime 	493.4
scalar RSUExampleScenario.node[67].veinsmobility 	minSpeed 	0.24777151614823
scalar RSUExampleScenario.node[67].veinsmobility 	maxSpeed 	13.999984848211
scalar RSUExampleScenario.node[67].veinsmobility 	totalDistance 	3409.4779481769
scalar RSUExampleScenario.node[67].veinsmobility 	totalCO2Emission 	713.57031314884
scalar RSUExampleScenario.node[68].veinsmobility 	startTime 	204.1
scalar RSUExampleScenario.node[68].veinsmobility 	totalTime 	292.9
scalar RSUExampleScenario.node[68].veinsmobility 	stopTime 	497.1
scalar RSUExampleScenario.node[68].veinsmobility 	minSpeed 	0.24970995099563
scalar RSUExampleScenario.node[68].veinsmobility 	maxSpeed 	13.999750536818
scalar RSUExampleScenario.node[68].veinsmobility 	totalDistance 	3409.7570841645
scalar RSUExampleScenario.node[68].veinsmobility 	totalCO2Emission 	717.31479710304
scalar RSUExampleScenario.node[69].veinsmobility 	startTime 	207.1
scalar RSUExampleScenario.node[69].veinsmobility 	totalTime 	293.6
scalar RSUExampleScenario.node[69].veinsmobility 	stopTime 	500.8
scalar RSUExampleScenario.node[69].veinsmobility 	minSpeed 	0.24996674613096
scalar RSUExampleScenario.node[69].veinsmobility 	maxSpeed 	13.99996187926
scalar RSUExampleScenario.node[69].veinsmobility 	totalDistance 	3413.9713208019
scalar RSUExampleScenario.node[69].veinsmobility 	totalCO2Emission 	715.25785220776
scalar RSUExampleScenario.node[70].veinsmobility 	startTime 	210.1
scalar RSUExampleScenario.node[70].veinsmobility 	totalTime 	294.2
scalar RSUExampleScenario.node[70].veinsmobility 	stopTime 	504.4
scalar RSUExampleScenario.node[70].veinsmobility 	minSpeed 	0.25688060795679
scalar RSUExampleScenario.node[70].veinsmobility 	maxSpeed 	13.999846037694
scalar RSUExampleScenario.node[70].veinsmobility 	totalDistance 	3409.6564658799
scalar RSUExampleScenario.node[70].veinsmobility 	totalCO2Emission 	719.85193778013
scalar RSUExampleScenario.node[71].veinsmobility 	startTime 	213.1
scalar RSUExampleScenario.node[71].veinsmobility 	totalTime 	294.8
scalar RSUExampleScenario.node[71].veinsmobility 	stopTime 	508
scalar RSUExampleScenario.node[71].veinsmobility 	minSpeed 	0.25302828598721
scalar RSUExampleScenario.node[71].veinsmobility 	maxSpeed 	13.999994041717
scalar RSUExampleScenario.node[71].veinsmobility 	totalDistance 	3409.5584740137
scalar RSUExampleScenario.node[71].veinsmobility 	totalCO2Emission 	716.24904033936
scalar RSUExampleScenario.node[72].veinsmobility 	startTime 	216.1
scalar RSUExampleScenario.node[72].veinsmobility 	totalTime 	295.4
scalar RSUExampleScenario.node[72].veinsmobility 	stopTime 	511.6
scalar RSUExampleScenario.node[72].veinsmobility 	minSpeed 	0.24902504558093
scalar RSUExampleScenario.node[72].veinsmobility 	maxSpeed 	13.999945569963
scalar RSUExampleScenario.node[72].veinsmobility 	totalDistance 	3413.6734307191
scalar RSUExampleScenario.node[72].veinsmobility 	totalCO2Emission 	717.73128270581
scalar RSUExampleScenario.node[73].veinsmobility 	startTime 	219.1
scalar RSUExampleScenario.node[73].veinsmobility 	totalTime 	296
scalar RSUExampleScenario.node[73].veinsmobility 	stopTime 	515.2
scalar RSUExampleScenario.node[73].veinsmobility 	minSpeed 	0.25930019523995
scalar RSUExampleScenario.node[73].veinsmobility 	maxSpeed 	13.999990003908
scalar RSUExampleScenario.node[73].veinsmobility 	totalDistance 	3409.7081370365
scalar RSUExampleScenario.node[73].veinsmobility 	totalCO2Emission 	717.69727235688
scalar RSUExampleScenario.node[74].veinsmobility 	startTime 	222.1
scalar RSUExampleScenario.node[74].veinsmobility 	totalTime 	296.6
scalar RSUExampleScenario.node[74].veinsmobility 	stopTime 	518.8
scalar RSUExampleScenario.node[74].veinsmobility 	minSpeed 	0.25107516038022
scalar RSUExampleScenario.node[74].veinsmobility 	maxSpeed 	13.999897729962
scalar RSUExampleScenario.node[74].veinsmobility 	totalDistance 	3413.8777168745
scalar RSUExampleScenario.node[74].veinsmobility 	totalCO2Emission 	719.35128012097
scalar RSUExampleScenario.node[75].veinsmobility 	startTime 	225.1
scalar RSUExampleScenario.node[75].veinsmobility 	totalTime 	297.3
scalar RSUExampleScenario.node[75].veinsmobility 	stopTime 	522.5
scalar RSUExampleScenario.node[75].veinsmobility 	minSpeed 	0.25434427536861
scalar RSUExampleScenario.node[75].veinsmobility 	maxSpeed 	13.999976328711
scalar RSUExampleScenario.node[75].veinsmobility 	totalDistance 	3409.9024824576
scalar RSUExampleScenario.node[75].veinsmobility 	totalCO2Emission 	723.23268651205
scalar RSUExampleScenario.node[76].veinsmobility 	startTime 	228.1
scalar RSUExampleScenario.node[76].veinsmobility 	totalTime 	297.9
scalar RSUExampleScenario.node[76].veinsmobility 	stopTime 	526.1
scalar RSUExampleScenario.node[76].veinsmobility 	minSpeed 	0.25855140586174
scalar RSUExampleScenario.node[76].veinsmobility 	maxSpeed 	13.999958320321
scalar RSUExampleScenario.node[76].veinsmobility 	totalDistance 	3413.9703367125
scalar RSUExampleScenario.node[76].veinsmobility 	totalCO2Emission 	723.20373840562
scalar RSUExampleScenario.node[77].veinsmobility 	startTime 	231.1
scalar RSUExampleScenario.node[77].veinsmobility 	totalTime 	298.5
scalar RSUExampleScenario.node[77].veinsmobility 	stopTime 	529.7
scalar RSUExampleScenario.node[77].veinsmobility 	minSpeed 	0.24824895942118
scalar RSUExampleScenario.node[77].veinsmobility 	maxSpeed 	13.999981772348
scalar RSUExampleScenario.node[77].veinsmobility 	totalDistance 	3409.4986838547
scalar RSUExampleScenario.node[77].veinsmobility 	totalCO2Emission 	717.65780498563
scalar RSUExampleScenario.node[78].veinsmobility 	startTime 	234.1
scalar RSUExampleScenario.node[78].veinsmobility 	totalTime 	299.2
scalar RSUExampleScenario.node[78].veinsmobility 	stopTime 	533.4
scalar RSUExampleScenario.node[78].veinsmobility 	minSpeed 	0.25030515891453
scalar RSUExampleScenario.node[78].veinsmobility 	maxSpeed 	13.999937464984
scalar RSUExampleScenario.node[78].veinsmobility 	totalDistance 	3414.0534383596
scalar RSUExampleScenario.node[78].veinsmobility 	totalCO2Emission 	723.10779819105
scalar RSUExampleScenario.node[79].veinsmobility 	startTime 	237.1
scalar RSUExampleScenario.node[79].veinsmobility 	totalTime 	300
scalar RSUExampleScenario.node[79].veinsmobility 	stopTime 	537.2
scalar RSUExampleScenario.node[79].veinsmobility 	minSpeed 	0.25873818984628
scalar RSUExampleScenario.node[79].veinsmobility 	maxSpeed 	13.99996050912
scalar RSUExampleScenario.node[79].veinsmobility 	totalDistance 	3410.1130121184
scalar RSUExampleScenario.node[79].veinsmobility 	totalCO2Emission 	719.06925156024
scalar RSUExampleScenario.node[80].veinsmobility 	startTime 	240.1
scalar RSUExampleScenario.node[80].veinsmobility 	totalTime 	300.7
scalar RSUExampleScenario.node[80].veinsmobility 	stopTime 	540.9
scalar RSUExampleScenario.node[80].veinsmobility 	minSpeed 	0.25268735845177
scalar RSUExampleScenario.node[80].veinsmobility 	maxSpeed 	13.999965962169
scalar RSUExampleScenario.node[80].veinsmobility 	totalDistance 	3413.8443014254
scalar RSUExampleScenario.node[80].veinsmobility 	totalCO2Emission 	719.94035382
scalar RSUExampleScenario.node[81].veinsmobility 	startTime 	243.1
scalar RSUExampleScenario.node[81].veinsmobility 	totalTime 	301.4
scalar RSUExampleScenario.node[81].veinsmobility 	stopTime 	544.6
scalar RSUExampleScenario.node[81].veinsmobility 	minSpeed 	0.24721635445161
scalar RSUExampleScenario.node[81].veinsmobility 	maxSpeed 	13.999998842794
scalar RSUExampleScenario.node[81].veinsmobility 	totalDistance 	3410.0112191348
scalar RSUExampleScenario.node[81].veinsmobility 	totalCO2Emission 	722.30952543828
scalar RSUExampleScenario.node[82].veinsmobility 	startTime 	246.1
scalar RSUExampleScenario.node[82].veinsmobility 	totalTime 	302.1
scalar RSUExampleScenario.node[82].veinsmobility 	stopTime 	548.3
scalar RSUExampleScenario.node[82].veinsmobility 	minSpeed 	0.25435720392014
scalar RSUExampleScenario.node[82].veinsmobility 	maxSpeed 	13.999958065858
scalar RSUExampleScenario.node[82].veinsmobility 	totalDistance 	3413.7260641314
scalar RSUExampleScenario.node[82].veinsmobility 	totalCO2Emission 	726.81726794543
scalar RSUExampleScenario.node[83].veinsmobility 	startTime 	249.1
scalar RSUExampleScenario.node[83].veinsmobility 	totalTime 	302.7
scalar RSUExampleScenario.node[83].veinsmobility 	stopTime 	551.9
scalar RSUExampleScenario.node[83].veinsmobility 	minSpeed 	0.24756626034575
scalar RSUExampleScenario.node[83].veinsmobility 	maxSpeed 	13.999963249522
scalar RSUExampleScenario.node[83].veinsmobility 	totalDistance 	3409.4018575482
scalar RSUExampleScenario.node[83].veinsmobility 	totalCO2Emission 	722.34961416429
scalar RSUExampleScenario.node[84].veinsmobility 	startTime 	252.1
scalar RSUExampleScenario.node[84].veinsmobility 	totalTime 	303.4
scalar RSUExampleScenario.node[84].veinsmobility 	stopTime 	555.6
scalar RSUExampleScenario.node[84].veinsmobility 	minSpeed 	0.25408319659019
scalar RSUExampleScenario.node[84].veinsmobility 	maxSpeed 	13.999881005296
scalar RSUExampleScenario.node[84].veinsmobility 	totalDistance 	3414.2607273969
scalar RSUExampleScenario.node[84].veinsmobility 	totalCO2Emission 	729.04138154179
scalar RSUExampleScenario.node[85].veinsmobility 	startTime 	255.1
scalar RSUExampleScenario.node[85].veinsmobility 	totalTime 	304.1
scalar RSUExampleScenario.node[85].veinsmobility 	stopTime 	559.3
scalar RSUExampleScenario.node[85].veinsmobility 	minSpeed 	0.25246145244758
scalar RSUExampleScenario.node[85].veinsmobility 	maxSpeed 	13.999585335555
scalar RSUExampleScenario.node[85].veinsmobility 	totalDistance 	3409.6060595204
scalar RSUExampleScenario.node[85].veinsmobility 	totalCO2Emission 	727.02001939963
scalar RSUExampleScenario.node[86].veinsmobility 	startTime 	258.1
scalar RSUExampleScenario.node[86].veinsmobility 	totalTime 	304.8
scalar RSUExampleScenario.node[86].veinsmobility 	stopTime 	563
scalar RSUExampleScenario.node[86].veinsmobility 	minSpeed 	0.24990315236477
scalar RSUExampleScenario.node[86].veinsmobility 	maxSpeed 	13.999987657473
scalar RSUExampleScenario.node[86].veinsmobility 	totalDistance 	3413.8414935019
scalar RSUExampleScenario.node[86].veinsmobility 	totalCO2Emission 	724.50322526138
scalar RSUExampleScenario.node[87].veinsmobility 	startTime 	261.1
scalar RSUExampleScenario.node[87].veinsmobility 	totalTime 	305.5
scalar RSUExampleScenario.node[87].veinsmobility 	stopTime 	566.7
scalar RSUExampleScenario.node[87].veinsmobility 	minSpeed 	0.25520258460892
scalar RSUExampleScenario.node[87].veinsmobility 	maxSpeed 	13.999702322341
scalar RSUExampleScenario.node[87].veinsmobility 	totalDistance 	3409.713150192
scalar RSUExampleScenario.node[87].veinsmobility 	totalCO2Emission 	727.71811725213
scalar RSUExampleScenario.node[88].veinsmobility 	startTime 	264.1
scalar RSUExampleScenario.node[88].veinsmobility 	totalTime 	306.2
scalar RSUExampleScenario.node[88].veinsmobility 	stopTime 	570.4
scalar RSUExampleScenario.node[88].veinsmobility 	minSpeed 	0.25030987864663
scalar RSUExampleScenario.node[88].veinsmobility 	maxSpeed 	13.999930484702
scalar RSUExampleScenario.node[88].veinsmobility 	totalDistance 	3413.9570308032
scalar RSUExampleScenario.node[88].veinsmobility 	totalCO2Emission 	724.78091502339
scalar RSUExampleScenario.node[89].veinsmobility 	startTime 	267.1
scalar RSUExampleScenario.node[89].veinsmobility 	totalTime 	306.9
scalar RSUExampleScenario.node[89].veinsmobility 	stopTime 	574.1
scalar RSUExampleScenario.node[89].veinsmobility 	minSpeed 	0.25472126410715
scalar RSUExampleScenario.node[89].veinsmobility 	maxSpeed 	13.999964611491
scalar RSUExampleScenario.node[89].veinsmobility 	totalDistance 	3409.5025247778
scalar RSUExampleScenario.node[89].veinsmobility 	totalCO2Emission 	727.28756558862
scalar RSUExampleScenario.node[90].veinsmobility 	startTime 	270.1
scalar RSUExampleScenario.node[90].veinsmobility 	totalTime 	307.6
scalar RSUExampleScenario.node[90].veinsmobility 	stopTime 	577.8
scalar RSUExampleScenario.node[90].veinsmobility 	minSpeed 	0.25186931889923
scalar RSUExampleScenario.node[90].veinsmobility 	maxSpeed 	13.999962773044
scalar RSUExampleScenario.node[90].veinsmobility 	totalDistance 	3413.7942641963
scalar RSUExampleScenario.node[90].veinsmobility 	totalCO2Emission 	730.68682635049
scalar RSUExampleScenario.node[91].veinsmobility 	startTime 	273.1
scalar RSUExampleScenario.node[91].veinsmobility 	totalTime 	308.3
scalar RSUExampleScenario.node[91].veinsmobility 	stopTime 	581.5
scalar RSUExampleScenario.node[91].veinsmobility 	minSpeed 	0.25225186048402
scalar RSUExampleScenario.node[91].veinsmobility 	maxSpeed 	13.999995852469
scalar RSUExampleScenario.node[91].veinsmobility 	totalDistance 	3409.6027675314
scalar RSUExampleScenario.node[91].veinsmobility 	totalCO2Emission 	731.50260060391
scalar RSUExampleScenario.node[92].veinsmobility 	startTime 	276.1
scalar RSUExampleScenario.node[92].veinsmobility 	totalTime 	309
scalar RSUExampleScenario.node[92].veinsmobility 	stopTime 	585.2
scalar RSUExampleScenario.node[92].veinsmobility 	minSpeed 	0.25404315354303
scalar RSUExampleScenario.node[92].veinsmobility 	maxSpeed 	13.999966761456
scalar RSUExampleScenario.node[92].veinsmobility 	totalDistance 	3413.7113826224
scalar RSUExampleScenario.node[92].veinsmobility 	totalCO2Emission 	731.98206022316
scalar RSUExampleScenario.node[93].veinsmobility 	startTime 	279.1
scalar RSUExampleScenario.node[93].veinsmobility 	totalTime 	309.7
scalar RSUExampleScenario.node[93].veinsmobility 	stopTime 	588.9
scalar RSUExampleScenario.node[93].veinsmobility 	minSpeed 	0.24850427914364
scalar RSUExampleScenario.node[93].veinsmobility 	maxSpeed 	13.999960676441
scalar RSUExampleScenario.node[93].veinsmobility 	totalDistance 	3409.5879450621
scalar RSUExampleScenario.node[93].veinsmobility 	totalCO2Emission 	729.1517113562
scalar RSUExampleScenario.node[94].veinsmobility 	startTime 	282.1
scalar RSUExampleScenario.node[94].veinsmobility 	totalTime 	310.4
scalar RSUExampleScenario.node[94].veinsmobility 	stopTime 	592.6
scalar RSUExampleScenario.node[94].veinsmobility 	minSpeed 	0.25010162921646
scalar RSUExampleScenario.node[94].veinsmobility 	maxSpeed 	13.999970328447
scalar RSUExampleScenario.node[94].veinsmobility 	totalDistance 	3414.0761446412
scalar RSUExampleScenario.node[94].veinsmobility 	totalCO2Emission 	733.45602664414
scalar RSUExampleScenario.node[95].veinsmobility 	startTime 	285.1
scalar RSUExampleScenario.node[95].veinsmobility 	totalTime 	311.1
scalar RSUExampleScenario.node[95].veinsmobility 	stopTime 	596.3
scalar RSUExampleScenario.node[95].veinsmobility 	minSpeed 	0.2587146987007
scalar RSUExampleScenario.node[95].veinsmobility 	maxSpeed 	13.999928225409
scalar RSUExampleScenario.node[95].veinsmobility 	totalDistance 	3409.8773852197
scalar RSUExampleScenario.node[95].veinsmobility 	totalCO2Emission 	733.70980402166
scalar RSUExampleScenario.node[96].veinsmobility 	startTime 	288.1
scalar RSUExampleScenario.node[96].veinsmobility 	totalTime 	311.9
scalar RSUExampleScenario.node[96].veinsmobility 	stopTime 	600.1
scalar RSUExampleScenario.node[96].veinsmobility 	minSpeed 	0.2551494293774
scalar RSUExampleScenario.node[96].veinsmobility 	maxSpeed 	13.999886200312
scalar RSUExampleScenario.node[96].veinsmobility 	totalDistance 	3414.305530652
scalar RSUExampleScenario.node[96].veinsmobility 	totalCO2Emission 	737.02892946582
scalar RSUExampleScenario.node[97].veinsmobility 	startTime 	291.1
scalar RSUExampleScenario.node[97].veinsmobility 	totalTime 	312.6
scalar RSUExampleScenario.node[97].veinsmobility 	stopTime 	603.8
scalar RSUExampleScenario.node[97].veinsmobility 	minSpeed 	0.24793333600787
scalar RSUExampleScenario.node[97].veinsmobility 	maxSpeed 	13.999921951946
scalar RSUExampleScenario.node[97].veinsmobility 	totalDistance 	3409.5029022388
scalar RSUExampleScenario.node[97].veinsmobility 	totalCO2Emission 	733.93614150454
scalar RSUExampleScenario.node[98].veinsmobility 	startTime 	294.1
scalar RSUExampleScenario.node[98].veinsmobility 	totalTime 	313.3
scalar RSUExampleScenario.node[98].veinsmobility 	stopTime 	607.5
scalar RSUExampleScenario.node[98].veinsmobility 	minSpeed 	0.25660049372213
scalar RSUExampleScenario.node[98].veinsmobility 	maxSpeed 	13.999993404818
scalar RSUExampleScenario.node[98].veinsmobility 	totalDistance 	3413.8225826306
scalar RSUExampleScenario.node[98].veinsmobility 	totalCO2Emission 	734.22881705444
scalar RSUExampleScenario.node[99].veinsmobility 	startTime 	297.1
scalar RSUExampleScenario.node[99].veinsmobility 	totalTime 	314
scalar RSUExampleScenario.node[99].veinsmobility 	stopTime 	611.2
scalar RSUExampleScenario.node[99].veinsmobility 	minSpeed 	0.25051653050841
scalar RSUExampleScenario.node[99].veinsmobility 	maxSpeed 	13.999735147213
scalar RSUExampleScenario.node[99].veinsmobility 	totalDistance 	3409.8998284135
scalar RSUExampleScenario.node[99].veinsmobility 	totalCO2Emission 	736.66058279636
scalar RSUExampleScenario.node[100].veinsmobility 	startTime 	300.1
scalar RSUExampleScenario.node[100].veinsmobility 	totalTime 	314.7
scalar RSUExampleScenario.node[100].veinsmobility 	stopTime 	614.9
scalar RSUExampleScenario.node[100].veinsmobility 	minSpeed 	0.24778957100958
scalar RSUExampleScenario.node[100].veinsmobility 	maxSpeed 	13.999952577152
scalar RSUExampleScenario.node[100].veinsmobility 	totalDistance 	3414.0476246754
scalar RSUExampleScenario.node[100].veinsmobility 	totalCO2Emission 	737.0296644849
scalar RSUExampleScenario.node[101].veinsmobility 	startTime 	303.1
scalar RSUExampleScenario.node[101].veinsmobility 	totalTime 	315.4
scalar RSUExampleScenario.node[101].veinsmobility 	stopTime 	618.6
scalar RSUExampleScenario.node[101].veinsmobility 	minSpeed 	0.25822811522614
scalar RSUExampleScenario.node[101].veinsmobility 	maxSpeed 	13.999961614506
scalar RSUExampleScenario.node[101].veinsmobility 	totalDistance 	3409.5514362385
scalar RSUExampleScenario.node[101].veinsmobility 	totalCO2Emission 	736.01874694327
scalar RSUExampleScenario.node[102].veinsmobility 	startTime 	306.1
scalar RSUExampleScenario.node[102].veinsmobility 	totalTime 	316.2
scalar RSUExampleScenario.node[102].veinsmobility 	stopTime 	622.4
scalar RSUExampleScenario.node[102].veinsmobility 	minSpeed 	0.25863342867722
scalar RSUExampleScenario.node[102].veinsmobility 	maxSpeed 	13.999806624663
scalar RSUExampleScenario.node[102].veinsmobility 	totalDistance 	3414.1275708251
scalar RSUExampleScenario.node[102].veinsmobility 	totalCO2Emission 	735.13924977369
scalar RSUExampleScenario.node[103].veinsmobility 	startTime 	309.1
scalar RSUExampleScenario.node[103].veinsmobility 	totalTime 	317
scalar RSUExampleScenario.node[103].veinsmobility 	stopTime 	626.2
scalar RSUExampleScenario.node[103].veinsmobility 	minSpeed 	0.25441529817833
scalar RSUExampleScenario.node[103].veinsmobility 	maxSpeed 	13.999948922293
scalar RSUExampleScenario.node[103].veinsmobility 	totalDistance 	3410.1300064095
scalar RSUExampleScenario.node[103].veinsmobility 	totalCO2Emission 	733.86242830696
scalar RSUExampleScenario.node[104].veinsmobility 	startTime 	312.1
scalar RSUExampleScenario.node[104].veinsmobility 	totalTime 	317.8
scalar RSUExampleScenario.node[104].veinsmobility 	stopTime 	630
scalar RSUExampleScenario.node[104].veinsmobility 	minSpeed 	0.25405535570835
scalar RSUExampleScenario.node[104].veinsmobility 	maxSpeed 	13.999627052192
scalar RSUExampleScenario.node[104].veinsmobility 	totalDistance 	3413.9515817743
scalar RSUExampleScenario.node[104].veinsmobility 	totalCO2Emission 	743.32670001154
scalar RSUExampleScenario.node[105].veinsmobility 	startTime 	315.1
scalar RSUExampleScenario.node[105].veinsmobility 	totalTime 	318.5
scalar RSUExampleScenario.node[105].veinsmobility 	stopTime 	633.7
scalar RSUExampleScenario.node[105].veinsmobility 	minSpeed 	0.25397868393338
scalar RSUExampleScenario.node[105].veinsmobility 	maxSpeed 	13.999984481938
scalar RSUExampleScenario.node[105].veinsmobility 	totalDistance 	3409.7515178269
scalar RSUExampleScenario.node[105].veinsmobility 	totalCO2Emission 	739.5835748182
scalar RSUExampleScenario.node[106].veinsmobility 	startTime 	318.1
scalar RSUExampleScenario.node[106].veinsmobility 	totalTime 	319.2
scalar RSUExampleScenario.node[106].veinsmobility 	stopTime 	637.4
scalar RSUExampleScenario.node[106].veinsmobility 	minSpeed 	0.25808967644861
scalar RSUExampleScenario.node[106].veinsmobility 	maxSpeed 	13.999940899552
scalar RSUExampleScenario.node[106].veinsmobility 	totalDistance 	3414.1103498972
scalar RSUExampleScenario.node[106].veinsmobility 	totalCO2Emission 	740.6857405999
scalar RSUExampleScenario.node[107].veinsmobility 	startTime 	321.1
scalar RSUExampleScenario.node[107].veinsmobility 	totalTime 	319.9
scalar RSUExampleScenario.node[107].veinsmobility 	stopTime 	641.1
scalar RSUExampleScenario.node[107].veinsmobility 	minSpeed 	0.25407224330609
scalar RSUExampleScenario.node[107].veinsmobility 	maxSpeed 	13.999926222214
scalar RSUExampleScenario.node[107].veinsmobility 	totalDistance 	3409.8970042828
scalar RSUExampleScenario.node[107].veinsmobility 	totalCO2Emission 	743.85946702034
scalar RSUExampleScenario.node[108].veinsmobility 	startTime 	324.1
scalar RSUExampleScenario.node[108].veinsmobility 	totalTime 	320.7
scalar RSUExampleScenario.node[108].veinsmobility 	stopTime 	644.9
scalar RSUExampleScenario.node[108].veinsmobility 	minSpeed 	0.25781466997555
scalar RSUExampleScenario.node[108].veinsmobility 	maxSpeed 	13.999898581158
scalar RSUExampleScenario.node[108].veinsmobility 	totalDistance 	3414.0447797746
scalar RSUExampleScenario.node[108].veinsmobility 	totalCO2Emission 	738.42278778257
scalar RSUExampleScenario.node[109].veinsmobility 	startTime 	327.1
scalar RSUExampleScenario.node[109].veinsmobility 	totalTime 	321.4
scalar RSUExampleScenario.node[109].veinsmobility 	stopTime 	648.6
scalar RSUExampleScenario.node[109].veinsmobility 	minSpeed 	0.25626352450345
scalar RSUExampleScenario.node[109].veinsmobility 	maxSpeed 	13.99970232107
scalar RSUExampleScenario.node[109].veinsmobility 	totalDistance 	3409.9955560279
scalar RSUExampleScenario.node[109].veinsmobility 	totalCO2Emission 	742.30980779405
scalar RSUExampleScenario.node[110].veinsmobility 	startTime 	330.1
scalar RSUExampleScenario.node[110].veinsmobility 	totalTime 	322
scalar RSUExampleScenario.node[110].veinsmobility 	stopTime 	652.2
scalar RSUExampleScenario.node[110].veinsmobility 	minSpeed 	0.24921157594398
scalar RSUExampleScenario.node[110].veinsmobility 	maxSpeed 	13.999995756156
scalar RSUExampleScenario.node[110].veinsmobility 	totalDistance 	3413.8435295397
scalar RSUExampleScenario.node[110].veinsmobility 	totalCO2Emission 	749.2101059819
scalar RSUExampleScenario.node[111].veinsmobility 	startTime 	333.1
scalar RSUExampleScenario.node[111].veinsmobility 	totalTime 	322.7
scalar RSUExampleScenario.node[111].veinsmobility 	stopTime 	655.9
scalar RSUExampleScenario.node[111].veinsmobility 	minSpeed 	0.25997717840946
scalar RSUExampleScenario.node[111].veinsmobility 	maxSpeed 	13.99999515573
scalar RSUExampleScenario.node[111].veinsmobility 	totalDistance 	3409.8379135487
scalar RSUExampleScenario.node[111].veinsmobility 	totalCO2Emission 	743.80899175363
scalar RSUExampleScenario.node[112].veinsmobility 	startTime 	336.1
scalar RSUExampleScenario.node[112].veinsmobility 	totalTime 	323.4
scalar RSUExampleScenario.node[112].veinsmobility 	stopTime 	659.6
scalar RSUExampleScenario.node[112].veinsmobility 	minSpeed 	0.25939078611648
scalar RSUExampleScenario.node[112].veinsmobility 	maxSpeed 	13.999688808715
scalar RSUExampleScenario.node[112].veinsmobility 	totalDistance 	3414.1849042051
scalar RSUExampleScenario.node[112].veinsmobility 	totalCO2Emission 	743.72113943169
scalar RSUExampleScenario.node[113].veinsmobility 	startTime 	339.1
scalar RSUExampleScenario.node[113].veinsmobility 	totalTime 	324.1
scalar RSUExampleScenario.node[113].veinsmobility 	stopTime 	663.3
scalar RSUExampleScenario.node[113].veinsmobility 	minSpeed 	0.25280605797283
scalar RSUExampleScenario.node[113].veinsmobility 	maxSpeed 	13.999893370464
scalar RSUExampleScenario.node[113].veinsmobility 	totalDistance 	3409.9831204543
scalar RSUExampleScenario.node[113].veinsmobility 	totalCO2Emission 	741.8249811864
scalar RSUExampleScenario.node[114].veinsmobility 	startTime 	342.1
scalar RSUExampleScenario.node[114].veinsmobility 	totalTime 	324.8
scalar RSUExampleScenario.node[114].veinsmobility 	stopTime 	667
scalar RSUExampleScenario.node[114].veinsmobility 	minSpeed 	0.25455515545583
scalar RSUExampleScenario.node[114].veinsmobility 	maxSpeed 	13.999835109196
scalar RSUExampleScenario.node[114].veinsmobility 	totalDistance 	3409.5563734577
scalar RSUExampleScenario.node[114].veinsmobility 	totalCO2Emission 	749.22073235028
scalar RSUExampleScenario.node[115].veinsmobility 	startTime 	345.1
scalar RSUExampleScenario.node[115].veinsmobility 	totalTime 	325.5
scalar RSUExampleScenario.node[115].veinsmobility 	stopTime 	670.7
scalar RSUExampleScenario.node[115].veinsmobility 	minSpeed 	0.24807409711462
scalar RSUExampleScenario.node[115].veinsmobility 	maxSpeed 	13.999882751517
scalar RSUExampleScenario.node[115].veinsmobility 	totalDistance 	3414.2936980523
scalar RSUExampleScenario.node[115].veinsmobility 	totalCO2Emission 	745.57644126747
scalar RSUExampleScenario.node[116].veinsmobility 	startTime 	348.1
scalar RSUExampleScenario.node[116].veinsmobility 	totalTime 	326.1
scalar RSUExampleScenario.node[116].veinsmobility 	stopTime 	674.3
scalar RSUExampleScenario.node[116].veinsmobility 	minSpeed 	0.25455663147103
scalar RSUExampleScenario.node[116].veinsmobility 	maxSpeed 	13.999924213116
scalar RSUExampleScenario.node[116].veinsmobility 	totalDistance 	3409.5201518503
scalar RSUExampleScenario.node[116].veinsmobility 	totalCO2Emission 	749.52795964171
scalar RSUExampleScenario.node[117].veinsmobility 	startTime 	351.1
scalar RSUExampleScenario.node[117].veinsmobility 	totalTime 	326.8
scalar RSUExampleScenario.node[117].veinsmobility 	stopTime 	678
scalar RSUExampleScenario.node[117].veinsmobility 	minSpeed 	0.25488065956184
scalar RSUExampleScenario.node[117].veinsmobility 	maxSpeed 	13.999999325841
scalar RSUExampleScenario.node[117].veinsmobility 	totalDistance 	3414.0283740928
scalar RSUExampleScenario.node[117].veinsmobility 	totalCO2Emission 	746.07712029438
scalar RSUExampleScenario.node[118].veinsmobility 	startTime 	354.1
scalar RSUExampleScenario.node[118].veinsmobility 	totalTime 	327.5
scalar RSUExampleScenario.node[118].veinsmobility 	stopTime 	681.7
scalar RSUExampleScenario.node[118].veinsmobility 	minSpeed 	0.24850761196646
scalar RSUExampleScenario.node[118].veinsmobility 	maxSpeed 	13.999972347806
scalar RSUExampleScenario.node[118].veinsmobility 	totalDistance 	3409.9609282657
scalar RSUExampleScenario.node[118].veinsmobility 	totalCO2Emission 	749.10686578952
scalar RSUExampleScenario.node[119].veinsmobility 	startTime 	357.1
scalar RSUExampleScenario.node[119].veinsmobility 	totalTime 	328.2
scalar RSUExampleScenario.node[119].veinsmobility 	stopTime 	685.4
scalar RSUExampleScenario.node[119].veinsmobility 	minSpeed 	0.25494567878055
scalar RSUExampleScenario.node[119].veinsmobility 	maxSpeed 	13.999991376712
scalar RSUExampleScenario.node[119].veinsmobility 	totalDistance 	3413.9383402195
scalar RSUExampleScenario.node[119].veinsmobility 	totalCO2Emission 	747.35879280739
scalar RSUExampleScenario.node[120].veinsmobility 	startTime 	360.1
scalar RSUExampleScenario.node[120].veinsmobility 	totalTime 	328.9
scalar RSUExampleScenario.node[120].veinsmobility 	stopTime 	689.1
scalar RSUExampleScenario.node[120].veinsmobility 	minSpeed 	0.2479725885673
scalar RSUExampleScenario.node[120].veinsmobility 	maxSpeed 	13.999779817066
scalar RSUExampleScenario.node[120].veinsmobility 	totalDistance 	3409.8227592394
scalar RSUExampleScenario.node[120].veinsmobility 	totalCO2Emission 	750.37890162045
scalar RSUExampleScenario.node[121].veinsmobility 	startTime 	363.1
scalar RSUExampleScenario.node[121].veinsmobility 	totalTime 	329.5
scalar RSUExampleScenario.node[121].veinsmobility 	stopTime 	692.7
scalar RSUExampleScenario.node[121].veinsmobility 	minSpeed 	0.25370654423488
scalar RSUExampleScenario.node[121].veinsmobility 	maxSpeed 	13.999946269062
scalar RSUExampleScenario.node[121].veinsmobility 	totalDistance 	3413.8613375339
scalar RSUExampleScenario.node[121].veinsmobility 	totalCO2Emission 	749.96449780528
scalar RSUExampleScenario.node[122].veinsmobility 	startTime 	366.1
scalar RSUExampleScenario.node[122].veinsmobility 	totalTime 	330.1
scalar RSUExampleScenario.node[122].veinsmobility 	stopTime 	696.3
scalar RSUExampleScenario.node[122].veinsmobility 	minSpeed 	0.25185419269837
scalar RSUExampleScenario.node[122].veinsmobility 	maxSpeed 	13.99978802765
scalar RSUExampleScenario.node[122].veinsmobility 	totalDistance 	3409.6939971583
scalar RSUExampleScenario.node[122].veinsmobility 	totalCO2Emission 	747.29694742748
scalar RSUExampleScenario.node[123].veinsmobility 	startTime 	369.1
scalar RSUExampleScenario.node[123].veinsmobility 	totalTime 	330.7
scalar RSUExampleScenario.node[123].veinsmobility 	stopTime 	699.9
scalar RSUExampleScenario.node[123].veinsmobility 	minSpeed 	0.25879140942451
scalar RSUExampleScenario.node[123].veinsmobility 	maxSpeed 	13.999926980245
scalar RSUExampleScenario.node[123].veinsmobility 	totalDistance 	3413.5966552801
scalar RSUExampleScenario.node[123].veinsmobility 	totalCO2Emission 	755.44185615725
scalar RSUExampleScenario.node[124].veinsmobility 	startTime 	372.1
scalar RSUExampleScenario.node[124].veinsmobility 	totalTime 	331.5
scalar RSUExampleScenario.node[124].veinsmobility 	stopTime 	703.7
scalar RSUExampleScenario.node[124].veinsmobility 	minSpeed 	0.25844349473994
scalar RSUExampleScenario.node[124].veinsmobility 	maxSpeed 	13.999957920026
scalar RSUExampleScenario.node[124].veinsmobility 	totalDistance 	3410.1307794583
scalar RSUExampleScenario.node[124].veinsmobility 	totalCO2Emission 	755.7555590045
scalar RSUExampleScenario.node[125].veinsmobility 	startTime 	375.1
scalar RSUExampleScenario.node[125].veinsmobility 	totalTime 	332.2
scalar RSUExampleScenario.node[125].veinsmobility 	stopTime 	707.4
scalar RSUExampleScenario.node[125].veinsmobility 	minSpeed 	0.25261448441888
scalar RSUExampleScenario.node[125].veinsmobility 	maxSpeed 	13.999965905356
scalar RSUExampleScenario.node[125].veinsmobility 	totalDistance 	3413.9530743177
scalar RSUExampleScenario.node[125].veinsmobility 	totalCO2Emission 	756.99661978734
scalar RSUExampleScenario.node[126].veinsmobility 	startTime 	378.1
scalar RSUExampleScenario.node[126].veinsmobility 	totalTime 	333
scalar RSUExampleScenario.node[126].veinsmobility 	stopTime 	711.2
scalar RSUExampleScenario.node[126].veinsmobility 	minSpeed 	0.25088290116866
scalar RSUExampleScenario.node[126].veinsmobility 	maxSpeed 	13.999961456659
scalar RSUExampleScenario.node[126].veinsmobility 	totalDistance 	3410.1699189278
scalar RSUExampleScenario.node[126].veinsmobility 	totalCO2Emission 	754.44822892173
scalar RSUExampleScenario.node[127].veinsmobility 	startTime 	381.1
scalar RSUExampleScenario.node[127].veinsmobility 	totalTime 	333.7
scalar RSUExampleScenario.node[127].veinsmobility 	stopTime 	714.9
scalar RSUExampleScenario.node[127].veinsmobility 	minSpeed 	0.25473829681566
scalar RSUExampleScenario.node[127].veinsmobility 	maxSpeed 	13.999999598132
scalar RSUExampleScenario.node[127].veinsmobility 	totalDistance 	3413.9726318032
scalar RSUExampleScenario.node[127].veinsmobility 	totalCO2Emission 	754.92077176777
scalar RSUExampleScenario.node[128].veinsmobility 	startTime 	384.1
scalar RSUExampleScenario.node[128].veinsmobility 	totalTime 	334.4
scalar RSUExampleScenario.node[128].veinsmobility 	stopTime 	718.6
scalar RSUExampleScenario.node[128].veinsmobility 	minSpeed 	0.25781219082489
scalar RSUExampleScenario.node[128].veinsmobility 	maxSpeed 	13.999981600123
scalar RSUExampleScenario.node[128].veinsmobility 	totalDistance 	3409.8168674979
scalar RSUExampleScenario.node[128].veinsmobility 	totalCO2Emission 	759.06391055933
scalar RSUExampleScenario.node[129].veinsmobility 	startTime 	387.1
scalar RSUExampleScenario.node[129].veinsmobility 	totalTime 	335.1
scalar RSUExampleScenario.node[129].veinsmobility 	stopTime 	722.3
scalar RSUExampleScenario.node[129].veinsmobility 	minSpeed 	0.25170354031119
scalar RSUExampleScenario.node[129].veinsmobility 	maxSpeed 	13.999976596069
scalar RSUExampleScenario.node[129].veinsmobility 	totalDistance 	3414.1032830666
scalar RSUExampleScenario.node[129].veinsmobility 	totalCO2Emission 	757.98334574473
scalar RSUExampleScenario.node[130].veinsmobility 	startTime 	390.1
scalar RSUExampleScenario.node[130].veinsmobility 	totalTime 	335.8
scalar RSUExampleScenario.node[130].veinsmobility 	stopTime 	726
scalar RSUExampleScenario.node[130].veinsmobility 	minSpeed 	0.25732176646125
scalar RSUExampleScenario.node[130].veinsmobility 	maxSpeed 	13.999991779488
scalar RSUExampleScenario.node[130].veinsmobility 	totalDistance 	3409.9256391176
scalar RSUExampleScenario.node[130].veinsmobility 	totalCO2Emission 	756.16309474581
scalar RSUExampleScenario.node[131].veinsmobility 	startTime 	393.1
scalar RSUExampleScenario.node[131].veinsmobility 	totalTime 	336.5
scalar RSUExampleScenario.node[131].veinsmobility 	stopTime 	729.7
scalar RSUExampleScenario.node[131].veinsmobility 	minSpeed 	0.25149367218558
scalar RSUExampleScenario.node[131].veinsmobility 	maxSpeed 	13.999697793857
scalar RSUExampleScenario.node[131].veinsmobility 	totalDistance 	3414.0495907557
scalar RSUExampleScenario.node[131].veinsmobility 	totalCO2Emission 	758.9041346205
scalar RSUExampleScenario.node[132].veinsmobility 	startTime 	396.1
scalar RSUExampleScenario.node[132].veinsmobility 	totalTime 	337.2
scalar RSUExampleScenario.node[132].veinsmobility 	stopTime 	733.4
scalar RSUExampleScenario.node[132].veinsmobility 	minSpeed 	0.25034631154058
scalar RSUExampleScenario.node[132].veinsmobility 	maxSpeed 	13.999822344461
scalar RSUExampleScenario.node[132].veinsmobility 	totalDistance 	3409.9937672091
scalar RSUExampleScenario.node[132].veinsmobility 	totalCO2Emission 	759.75327770821
scalar RSUExampleScenario.node[133].veinsmobility 	startTime 	399.1
scalar RSUExampleScenario.node[133].veinsmobility 	totalTime 	337.9
scalar RSUExampleScenario.node[133].veinsmobility 	stopTime 	737.1
scalar RSUExampleScenario.node[133].veinsmobility 	minSpeed 	0.25764998986712
scalar RSUExampleScenario.node[133].veinsmobility 	maxSpeed 	13.999997628534
scalar RSUExampleScenario.node[133].veinsmobility 	totalDistance 	3414.1192443247
scalar RSUExampleScenario.node[133].veinsmobility 	totalCO2Emission 	762.37824087051
scalar RSUExampleScenario.node[134].veinsmobility 	startTime 	402.1
scalar RSUExampleScenario.node[134].veinsmobility 	totalTime 	338.6
scalar RSUExampleScenario.node[134].veinsmobility 	stopTime 	740.8
scalar RSUExampleScenario.node[134].veinsmobility 	minSpeed 	0.24813632429042
scalar RSUExampleScenario.node[134].veinsmobility 	maxSpeed 	13.999875316308
scalar RSUExampleScenario.node[134].veinsmobility 	totalDistance 	3409.7429368798
scalar RSUExampleScenario.node[134].veinsmobility 	totalCO2Emission 	760.34921296768
scalar RSUExampleScenario.node[135].veinsmobility 	startTime 	405.1
scalar RSUExampleScenario.node[135].veinsmobility 	totalTime 	339.4
scalar RSUExampleScenario.node[135].veinsmobility 	stopTime 	744.6
scalar RSUExampleScenario.node[135].veinsmobility 	minSpeed 	0.25586149642407
scalar RSUExampleScenario.node[135].veinsmobility 	maxSpeed 	13.999991489309
scalar RSUExampleScenario.node[135].veinsmobility 	totalDistance 	3414.2634002036
scalar RSUExampleScenario.node[135].veinsmobility 	totalCO2Emission 	760.36624119403
scalar RSUExampleScenario.node[136].veinsmobility 	startTime 	408.1
scalar RSUExampleScenario.node[136].veinsmobility 	totalTime 	340.1
scalar RSUExampleScenario.node[136].veinsmobility 	stopTime 	748.3
scalar RSUExampleScenario.node[136].veinsmobility 	minSpeed 	0.25188033503178
scalar RSUExampleScenario.node[136].veinsmobility 	maxSpeed 	13.999997769159
scalar RSUExampleScenario.node[136].veinsmobility 	totalDistance 	3410.0473369939
scalar RSUExampleScenario.node[136].veinsmobility 	totalCO2Emission 	762.92794386827
scalar RSUExampleScenario.node[137].veinsmobility 	startTime 	411.1
scalar RSUExampleScenario.node[137].veinsmobility 	totalTime 	340.9
scalar RSUExampleScenario.node[137].veinsmobility 	stopTime 	752.1
scalar RSUExampleScenario.node[137].veinsmobility 	minSpeed 	0.25965634981706
scalar RSUExampleScenario.node[137].veinsmobility 	maxSpeed 	13.999873941233
scalar RSUExampleScenario.node[137].veinsmobility 	totalDistance 	3414.1795897106
scalar RSUExampleScenario.node[137].veinsmobility 	totalCO2Emission 	762.47502165312
scalar RSUExampleScenario.node[138].veinsmobility 	startTime 	414.1
scalar RSUExampleScenario.node[138].veinsmobility 	totalTime 	341.7
scalar RSUExampleScenario.node[138].veinsmobility 	stopTime 	755.9
scalar RSUExampleScenario.node[138].veinsmobility 	minSpeed 	0.25197784973681
scalar RSUExampleScenario.node[138].veinsmobility 	maxSpeed 	13.999989874391
scalar RSUExampleScenario.node[138].veinsmobility 	totalDistance 	3410.0471339959
scalar RSUExampleScenario.node[138].veinsmobility 	totalCO2Emission 	760.30097780918
scalar RSUExampleScenario.node[139].veinsmobility 	startTime 	417.1
scalar RSUExampleScenario.node[139].veinsmobility 	totalTime 	342.4
scalar RSUExampleScenario.node[139].veinsmobility 	stopTime 	759.6
scalar RSUExampleScenario.node[139].veinsmobility 	minSpeed 	0.25250369702745
scalar RSUExampleScenario.node[139].veinsmobility 	maxSpeed 	13.999890589018
scalar RSUExampleScenario.node[139].veinsmobility 	totalDistance 	3413.7621324668
scalar RSUExampleScenario.node[139].veinsmobility 	totalCO2Emission 	764.60975399985
scalar RSUExampleScenario.node[140].veinsmobility 	startTime 	420.1
scalar RSUExampleScenario.node[140].veinsmobility 	totalTime 	343
scalar RSUExampleScenario.node[140].veinsmobility 	stopTime 	763.2
scalar RSUExampleScenario.node[140].veinsmobility 	minSpeed 	0.2538969224547
scalar RSUExampleScenario.node[140].veinsmobility 	maxSpeed 	13.999937953358
scalar RSUExampleScenario.node[140].veinsmobility 	totalDistance 	3409.5557719322
scalar RSUExampleScenario.node[140].veinsmobility 	totalCO2Emission 	764.7060023669
scalar RSUExampleScenario.node[141].veinsmobility 	startTime 	423.1
scalar RSUExampleScenario.node[141].veinsmobility 	totalTime 	343.7
scalar RSUExampleScenario.node[141].veinsmobility 	stopTime 	766.9
scalar RSUExampleScenario.node[141].veinsmobility 	minSpeed 	0.25716070542601
scalar RSUExampleScenario.node[141].veinsmobility 	maxSpeed 	13.999882254396
scalar RSUExampleScenario.node[141].veinsmobility 	totalDistance 	3414.3359403609
scalar RSUExampleScenario.node[141].veinsmobility 	totalCO2Emission 	762.02891521596
scalar RSUExampleScenario.node[142].veinsmobility 	startTime 	426.1
scalar RSUExampleScenario.node[142].veinsmobility 	totalTime 	344.4
scalar RSUExampleScenario.node[142].veinsmobility 	stopTime 	770.6
scalar RSUExampleScenario.node[142].veinsmobility 	minSpeed 	0.25152979054977
scalar RSUExampleScenario.node[142].veinsmobility 	maxSpeed 	13.999899889401
scalar RSUExampleScenario.node[142].veinsmobility 	totalDistance 	3409.6167224444
scalar RSUExampleScenario.node[142].veinsmobility 	totalCO2Emission 	765.72731719839
scalar RSUExampleScenario.node[143].veinsmobility 	startTime 	429.1
scalar RSUExampleScenario.node[143].veinsmobility 	totalTime 	345.1
scalar RSUExampleScenario.node[143].veinsmobility 	stopTime 	774.3
scalar RSUExampleScenario.node[143].veinsmobility 	minSpeed 	0.24990561455325
scalar RSUExampleScenario.node[143].veinsmobility 	maxSpeed 	13.999956141147
scalar RSUExampleScenario.node[143].veinsmobility 	totalDistance 	3413.8839673666
scalar RSUExampleScenario.node[143].veinsmobility 	totalCO2Emission 	764.25336057994
scalar RSUExampleScenario.node[144].veinsmobility 	startTime 	432.1
scalar RSUExampleScenario.node[144].veinsmobility 	totalTime 	345.8
scalar RSUExampleScenario.node[144].veinsmobility 	stopTime 	778
scalar RSUExampleScenario.node[144].veinsmobility 	minSpeed 	0.25974535241444
scalar RSUExampleScenario.node[144].veinsmobility 	maxSpeed 	13.999929318931
scalar RSUExampleScenario.node[144].veinsmobility 	totalDistance 	3409.7338332403
scalar RSUExampleScenario.node[144].veinsmobility 	totalCO2Emission 	765.70756464393
scalar RSUExampleScenario.node[145].veinsmobility 	startTime 	435.1
scalar RSUExampleScenario.node[145].veinsmobility 	totalTime 	346.5
scalar RSUExampleScenario.node[145].veinsmobility 	stopTime 	781.7
scalar RSUExampleScenario.node[145].veinsmobility 	minSpeed 	0.25574832620379
scalar RSUExampleScenario.node[145].veinsmobility 	maxSpeed 	13.99988738161
scalar RSUExampleScenario.node[145].veinsmobility 	totalDistance 	3413.8701634011
scalar RSUExampleScenario.node[145].veinsmobility 	totalCO2Emission 	768.12894491367
scalar RSUExampleScenario.node[146].veinsmobility 	startTime 	438.1
scalar RSUExampleScenario.node[146].veinsmobility 	totalTime 	347.1
scalar RSUExampleScenario.node[146].veinsmobility 	stopTime 	785.3
scalar RSUExampleScenario.node[146].veinsmobility 	minSpeed 	0.25342096773093
scalar RSUExampleScenario.node[146].veinsmobility 	maxSpeed 	13.999991511495
scalar RSUExampleScenario.node[146].veinsmobility 	totalDistance 	3409.8000439893
scalar RSUExampleScenario.node[146].veinsmobility 	totalCO2Emission 	766.71835156269
scalar RSUExampleScenario.node[147].veinsmobility 	startTime 	441.1
scalar RSUExampleScenario.node[147].veinsmobility 	totalTime 	347.9
scalar RSUExampleScenario.node[147].veinsmobility 	stopTime 	789.1
scalar RSUExampleScenario.node[147].veinsmobility 	minSpeed 	0.25068509607553
scalar RSUExampleScenario.node[147].veinsmobility 	maxSpeed 	13.999919036292
scalar RSUExampleScenario.node[147].veinsmobility 	totalDistance 	3414.2101477876
scalar RSUExampleScenario.node[147].veinsmobility 	totalCO2Emission 	769.64417904425
scalar RSUExampleScenario.node[148].veinsmobility 	startTime 	444.1
scalar RSUExampleScenario.node[148].veinsmobility 	totalTime 	348.6
scalar RSUExampleScenario.node[148].veinsmobility 	stopTime 	792.8
scalar RSUExampleScenario.node[148].veinsmobility 	minSpeed 	0.25028792252066
scalar RSUExampleScenario.node[148].veinsmobility 	maxSpeed 	13.999903404331
scalar RSUExampleScenario.node[148].veinsmobility 	totalDistance 	3409.7413787332
scalar RSUExampleScenario.node[148].veinsmobility 	totalCO2Emission 	774.30125126212
scalar RSUExampleScenario.node[149].veinsmobility 	startTime 	447.1
scalar RSUExampleScenario.node[149].veinsmobility 	totalTime 	349.3
scalar RSUExampleScenario.node[149].veinsmobility 	stopTime 	796.5
scalar RSUExampleScenario.node[149].veinsmobility 	minSpeed 	0.25096059866506
scalar RSUExampleScenario.node[149].veinsmobility 	maxSpeed 	13.999917815251
scalar RSUExampleScenario.node[149].veinsmobility 	totalDistance 	3414.3526987894
scalar RSUExampleScenario.node[149].veinsmobility 	totalCO2Emission 	776.04020494004
scalar RSUExampleScenario.node[150].veinsmobility 	startTime 	450.1
scalar RSUExampleScenario.node[150].veinsmobility 	totalTime 	350
scalar RSUExampleScenario.node[150].veinsmobility 	stopTime 	800.2
scalar RSUExampleScenario.node[150].veinsmobility 	minSpeed 	0.25714035092131
scalar RSUExampleScenario.node[150].veinsmobility 	maxSpeed 	13.9999961237
scalar RSUExampleScenario.node[150].veinsmobility 	totalDistance 	3409.7773015658
scalar RSUExampleScenario.node[150].veinsmobility 	totalCO2Emission 	774.95955836365
scalar RSUExampleScenario.node[151].veinsmobility 	startTime 	453.1
scalar RSUExampleScenario.node[151].veinsmobility 	totalTime 	350.7
scalar RSUExampleScenario.node[151].veinsmobility 	stopTime 	803.9
scalar RSUExampleScenario.node[151].veinsmobility 	minSpeed 	0.25038415781921
scalar RSUExampleScenario.node[151].veinsmobility 	maxSpeed 	13.999983354909
scalar RSUExampleScenario.node[151].veinsmobility 	totalDistance 	3414.1340648966
scalar RSUExampleScenario.node[151].veinsmobility 	totalCO2Emission 	770.49515957408
scalar RSUExampleScenario.node[152].veinsmobility 	startTime 	456.1
scalar RSUExampleScenario.node[152].veinsmobility 	totalTime 	351.4
scalar RSUExampleScenario.node[152].veinsmobility 	stopTime 	807.6
scalar RSUExampleScenario.node[152].veinsmobility 	minSpeed 	0.24995224723103
scalar RSUExampleScenario.node[152].veinsmobility 	maxSpeed 	13.999924784757
scalar RSUExampleScenario.node[152].veinsmobility 	totalDistance 	3410.0651121158
[...]
scalar RSUExampleScenario.node[628].veinsmobility 	totalCO2Emission 	324.75975570386
scalar RSUExampleScenario.node[629].veinsmobility 	startTime 	1887.1
scalar RSUExampleScenario.node[629].veinsmobility 	totalTime 	112.8
scalar RSUExampleScenario.node[629].veinsmobility 	stopTime 	2000
scalar RSUExampleScenario.node[629].veinsmobility 	minSpeed 	0.24902710262337
scalar RSUExampleScenario.node[629].veinsmobility 	maxSpeed 	13.999688056617
scalar RSUExampleScenario.node[629].veinsmobility 	totalDistance 	1360.3004841732
scalar RSUExampleScenario.node[629].veinsmobility 	totalCO2Emission 	318.13467855788
scalar RSUExampleScenario.node[630].veinsmobility 	startTime 	1890.1
scalar RSUExampleScenario.node[630].veinsmobility 	totalTime 	109.8
scalar RSUExampleScenario.node[630].veinsmobility 	stopTime 	2000
scalar RSUExampleScenario.node[630].veinsmobility 	minSpeed 	0.25354459693795
scalar RSUExampleScenario.node[630].veinsmobility 	maxSpeed 	13.99997278315
scalar RSUExampleScenario.node[630].veinsmobility 	totalDistance 	1320.1532926008
scalar RSUExampleScenario.node[630].veinsmobility 	totalCO2Emission 	312.37920900588
scalar RSUExampleScenario.node[631].veinsmobility 	startTime 	1893.1
scalar RSUExampleScenario.node[631].veinsmobility 	totalTime 	106.8
scalar RSUExampleScenario.node[631].veinsmobility 	stopTime 	2000
scalar RSUExampleScenario.node[631].veinsmobility 	minSpeed 	0.25153519876651
scalar RSUExampleScenario.node[631].veinsmobility 	maxSpeed 	13.999490171531
scalar RSUExampleScenario.node[631].veinsmobility 	totalDistance 	1277.434459727
scalar RSUExampleScenario.node[631].veinsmobility 	totalCO2Emission 	303.19623889637
scalar RSUExampleScenario.node[632].veinsmobility 	startTime 	1896.1
scalar RSUExampleScenario.node[632].veinsmobility 	totalTime 	103.8
scalar RSUExampleScenario.node[632].veinsmobility 	stopTime 	2000
scalar RSUExampleScenario.node[632].veinsmobility 	minSpeed 	0.25892316039419
scalar RSUExampleScenario.node[632].veinsmobility 	maxSpeed 	13.999616397589
scalar RSUExampleScenario.node[632].veinsmobility 	totalDistance 	1237.4208013157
scalar RSUExampleScenario.node[632].veinsmobility 	totalCO2Emission 	296.928577949
scalar RSUExampleScenario.node[633].veinsmobility 	startTime 	1899.1
scalar RSUExampleScenario.node[633].veinsmobility 	totalTime 	100.8
scalar RSUExampleScenario.node[633].veinsmobility 	stopTime 	2000
scalar RSUExampleScenario.node[633].veinsmobility 	minSpeed 	0.25207910099416
scalar RSUExampleScenario.node[633].veinsmobility 	maxSpeed 	13.999848177005
scalar RSUExampleScenario.node[633].veinsmobility 	totalDistance 	1194.0837720736
scalar RSUExampleScenario.node[633].veinsmobility 	totalCO2Emission 	289.36364712201
scalar RSUExampleScenario.node[634].veinsmobility 	startTime 	1902.1
scalar RSUExampleScenario.node[634].veinsmobility 	totalTime 	97.8
scalar RSUExampleScenario.node[634].veinsmobility 	stopTime 	2000
scalar RSUExampleScenario.node[634].veinsmobility 	minSpeed 	0.25559266928094
scalar RSUExampleScenario.node[634].veinsmobility 	maxSpeed 	13.999938655605
scalar RSUExampleScenario.node[634].veinsmobility 	totalDistance 	1153.8068899327
scalar RSUExampleScenario.node[634].veinsmobility 	totalCO2Emission 	281.63733830881
scalar RSUExampleScenario.node[635].veinsmobility 	startTime 	1905.1
scalar RSUExampleScenario.node[635].veinsmobility 	totalTime 	94.8
scalar RSUExampleScenario.node[635].veinsmobility 	stopTime 	2000
scalar RSUExampleScenario.node[635].veinsmobility 	minSpeed 	0.25775040358515
scalar RSUExampleScenario.node[635].veinsmobility 	maxSpeed 	13.999993643966
scalar RSUExampleScenario.node[635].veinsmobility 	totalDistance 	1111.7314848634
scalar RSUExampleScenario.node[635].veinsmobility 	totalCO2Emission 	274.99063960858
scalar RSUExampleScenario.node[636].veinsmobility 	startTime 	1908.1
scalar RSUExampleScenario.node[636].veinsmobility 	totalTime 	91.8
scalar RSUExampleScenario.node[636].veinsmobility 	stopTime 	2000
scalar RSUExampleScenario.node[636].veinsmobility 	minSpeed 	0.25083191844285
scalar RSUExampleScenario.node[636].veinsmobility 	maxSpeed 	13.999987410093
scalar RSUExampleScenario.node[636].veinsmobility 	totalDistance 	1070.3654102325
scalar RSUExampleScenario.node[636].veinsmobility 	totalCO2Emission 	266.60758415905
scalar RSUExampleScenario.node[637].veinsmobility 	startTime 	1911.1
scalar RSUExampleScenario.node[637].veinsmobility 	totalTime 	88.8
scalar RSUExampleScenario.node[637].veinsmobility 	stopTime 	2000
scalar RSUExampleScenario.node[637].veinsmobility 	minSpeed 	0.24783662464237
scalar RSUExampleScenario.node[637].veinsmobility 	maxSpeed 	13.999603279717
scalar RSUExampleScenario.node[637].veinsmobility 	totalDistance 	1028.1297781362
scalar RSUExampleScenario.node[637].veinsmobility 	totalCO2Emission 	259.82334697784
scalar RSUExampleScenario.node[638].veinsmobility 	startTime 	1914.1
scalar RSUExampleScenario.node[638].veinsmobility 	totalTime 	85.8
scalar RSUExampleScenario.node[638].veinsmobility 	stopTime 	2000
scalar RSUExampleScenario.node[638].veinsmobility 	minSpeed 	0.25302438337565
scalar RSUExampleScenario.node[638].veinsmobility 	maxSpeed 	13.999099102463
scalar RSUExampleScenario.node[638].veinsmobility 	totalDistance 	986.51304914351
scalar RSUExampleScenario.node[638].veinsmobility 	totalCO2Emission 	252.97731547734
scalar RSUExampleScenario.node[639].veinsmobility 	startTime 	1917.1
scalar RSUExampleScenario.node[639].veinsmobility 	totalTime 	82.8
scalar RSUExampleScenario.node[639].veinsmobility 	stopTime 	2000
scalar RSUExampleScenario.node[639].veinsmobility 	minSpeed 	0.2483933893647
scalar RSUExampleScenario.node[639].veinsmobility 	maxSpeed 	13.999610502536
scalar RSUExampleScenario.node[639].veinsmobility 	totalDistance 	953.29010245153
scalar RSUExampleScenario.node[639].veinsmobility 	totalCO2Emission 	232.53785912409
scalar RSUExampleScenario.node[640].veinsmobility 	startTime 	1920.1
scalar RSUExampleScenario.node[640].veinsmobility 	totalTime 	79.8
scalar RSUExampleScenario.node[640].veinsmobility 	stopTime 	2000
scalar RSUExampleScenario.node[640].veinsmobility 	minSpeed 	0.25990181943262
scalar RSUExampleScenario.node[640].veinsmobility 	maxSpeed 	13.999976274199
scalar RSUExampleScenario.node[640].veinsmobility 	totalDistance 	936.99533449066
scalar RSUExampleScenario.node[640].veinsmobility 	totalCO2Emission 	223.52354890839
scalar RSUExampleScenario.node[641].veinsmobility 	startTime 	1923.1
scalar RSUExampleScenario.node[641].veinsmobility 	totalTime 	76.8
scalar RSUExampleScenario.node[641].veinsmobility 	stopTime 	2000
scalar RSUExampleScenario.node[641].veinsmobility 	minSpeed 	0.25290228808951
scalar RSUExampleScenario.node[641].veinsmobility 	maxSpeed 	13.998781774163
scalar RSUExampleScenario.node[641].veinsmobility 	totalDistance 	912.82394746895
scalar RSUExampleScenario.node[641].veinsmobility 	totalCO2Emission 	217.48324322398
scalar RSUExampleScenario.node[642].veinsmobility 	startTime 	1926.1
scalar RSUExampleScenario.node[642].veinsmobility 	totalTime 	73.8
scalar RSUExampleScenario.node[642].veinsmobility 	stopTime 	2000
scalar RSUExampleScenario.node[642].veinsmobility 	minSpeed 	0.24981169570889
scalar RSUExampleScenario.node[642].veinsmobility 	maxSpeed 	13.99860581351
scalar RSUExampleScenario.node[642].veinsmobility 	totalDistance 	874.53564765371
scalar RSUExampleScenario.node[642].veinsmobility 	totalCO2Emission 	211.8927520524
scalar RSUExampleScenario.node[643].veinsmobility 	startTime 	1929.1
scalar RSUExampleScenario.node[643].veinsmobility 	totalTime 	70.8
scalar RSUExampleScenario.node[643].veinsmobility 	stopTime 	2000
scalar RSUExampleScenario.node[643].veinsmobility 	minSpeed 	0.25418309814367
scalar RSUExampleScenario.node[643].veinsmobility 	maxSpeed 	13.999957771834
scalar RSUExampleScenario.node[643].veinsmobility 	totalDistance 	832.05960794812
scalar RSUExampleScenario.node[643].veinsmobility 	totalCO2Emission 	206.13782409346
scalar RSUExampleScenario.node[644].veinsmobility 	startTime 	1932.1
scalar RSUExampleScenario.node[644].veinsmobility 	totalTime 	67.8
scalar RSUExampleScenario.node[644].veinsmobility 	stopTime 	2000
scalar RSUExampleScenario.node[644].veinsmobility 	minSpeed 	0.25681538511021
scalar RSUExampleScenario.node[644].veinsmobility 	maxSpeed 	13.999912851211
scalar RSUExampleScenario.node[644].veinsmobility 	totalDistance 	789.77363413313
scalar RSUExampleScenario.node[644].veinsmobility 	totalCO2Emission 	200.67402560035
scalar RSUExampleScenario.node[645].veinsmobility 	startTime 	1935.1
scalar RSUExampleScenario.node[645].veinsmobility 	totalTime 	64.8
scalar RSUExampleScenario.node[645].veinsmobility 	stopTime 	2000
scalar RSUExampleScenario.node[645].veinsmobility 	minSpeed 	0.24834847401059
scalar RSUExampleScenario.node[645].veinsmobility 	maxSpeed 	13.999646834135
scalar RSUExampleScenario.node[645].veinsmobility 	totalDistance 	749.39606424129
scalar RSUExampleScenario.node[645].veinsmobility 	totalCO2Emission 	194.47609862989
scalar RSUExampleScenario.node[646].veinsmobility 	startTime 	1938.1
scalar RSUExampleScenario.node[646].veinsmobility 	totalTime 	61.8
scalar RSUExampleScenario.node[646].veinsmobility 	stopTime 	2000
scalar RSUExampleScenario.node[646].veinsmobility 	minSpeed 	0.25866854259232
scalar RSUExampleScenario.node[646].veinsmobility 	maxSpeed 	13.999979330357
scalar RSUExampleScenario.node[646].veinsmobility 	totalDistance 	706.94190689152
scalar RSUExampleScenario.node[646].veinsmobility 	totalCO2Emission 	185.45550884121
scalar RSUExampleScenario.node[647].veinsmobility 	startTime 	1941.1
scalar RSUExampleScenario.node[647].veinsmobility 	totalTime 	58.8
scalar RSUExampleScenario.node[647].veinsmobility 	stopTime 	2000
scalar RSUExampleScenario.node[647].veinsmobility 	minSpeed 	0.25997210101574
scalar RSUExampleScenario.node[647].veinsmobility 	maxSpeed 	13.999474188462
scalar RSUExampleScenario.node[647].veinsmobility 	totalDistance 	665.05481576111
scalar RSUExampleScenario.node[647].veinsmobility 	totalCO2Emission 	178.41349550205
scalar RSUExampleScenario.node[648].veinsmobility 	startTime 	1944.1
scalar RSUExampleScenario.node[648].veinsmobility 	totalTime 	55.8
scalar RSUExampleScenario.node[648].veinsmobility 	stopTime 	2000
scalar RSUExampleScenario.node[648].veinsmobility 	minSpeed 	0.25782716030418
scalar RSUExampleScenario.node[648].veinsmobility 	maxSpeed 	13.99954971371
scalar RSUExampleScenario.node[648].veinsmobility 	totalDistance 	624.69647435492
scalar RSUExampleScenario.node[648].veinsmobility 	totalCO2Emission 	171.62913884911
scalar RSUExampleScenario.node[649].veinsmobility 	startTime 	1947.1
scalar RSUExampleScenario.node[649].veinsmobility 	totalTime 	52.8
scalar RSUExampleScenario.node[649].veinsmobility 	stopTime 	2000
scalar RSUExampleScenario.node[649].veinsmobility 	minSpeed 	0.25717742812075
scalar RSUExampleScenario.node[649].veinsmobility 	maxSpeed 	13.999920359668
scalar RSUExampleScenario.node[649].veinsmobility 	totalDistance 	582.8922585776
scalar RSUExampleScenario.node[649].veinsmobility 	totalCO2Emission 	165.99795484483
scalar RSUExampleScenario.node[650].veinsmobility 	startTime 	1950.1
scalar RSUExampleScenario.node[650].veinsmobility 	totalTime 	49.8
scalar RSUExampleScenario.node[650].veinsmobility 	stopTime 	2000
scalar RSUExampleScenario.node[650].veinsmobility 	minSpeed 	0.24874701373815
scalar RSUExampleScenario.node[650].veinsmobility 	maxSpeed 	13.999614197682
scalar RSUExampleScenario.node[650].veinsmobility 	totalDistance 	539.80642697008
scalar RSUExampleScenario.node[650].veinsmobility 	totalCO2Emission 	157.44605960636
scalar RSUExampleScenario.node[651].veinsmobility 	startTime 	1953.1
scalar RSUExampleScenario.node[651].veinsmobility 	totalTime 	46.8
scalar RSUExampleScenario.node[651].veinsmobility 	stopTime 	2000
scalar RSUExampleScenario.node[651].veinsmobility 	minSpeed 	0.25655961489119
scalar RSUExampleScenario.node[651].veinsmobility 	maxSpeed 	13.999929303192
scalar RSUExampleScenario.node[651].veinsmobility 	totalDistance 	498.28695853872
scalar RSUExampleScenario.node[651].veinsmobility 	totalCO2Emission 	151.40443427226
scalar RSUExampleScenario.node[652].veinsmobility 	startTime 	1956.1
scalar RSUExampleScenario.node[652].veinsmobility 	totalTime 	43.8
scalar RSUExampleScenario.node[652].veinsmobility 	stopTime 	2000
scalar RSUExampleScenario.node[652].veinsmobility 	minSpeed 	0.25782696643472
scalar RSUExampleScenario.node[652].veinsmobility 	maxSpeed 	13.999751415648
scalar RSUExampleScenario.node[652].veinsmobility 	totalDistance 	454.06421448285
scalar RSUExampleScenario.node[652].veinsmobility 	totalCO2Emission 	143.65209220665
scalar RSUExampleScenario.node[653].veinsmobility 	startTime 	1959.1
scalar RSUExampleScenario.node[653].veinsmobility 	totalTime 	40.8
scalar RSUExampleScenario.node[653].veinsmobility 	stopTime 	2000
scalar RSUExampleScenario.node[653].veinsmobility 	minSpeed 	0.25095306786662
scalar RSUExampleScenario.node[653].veinsmobility 	maxSpeed 	13.999423259099
scalar RSUExampleScenario.node[653].veinsmobility 	totalDistance 	411.93140098628
scalar RSUExampleScenario.node[653].veinsmobility 	totalCO2Emission 	137.11072449025
scalar RSUExampleScenario.node[654].veinsmobility 	startTime 	1962.1
scalar RSUExampleScenario.node[654].veinsmobility 	totalTime 	37.8
scalar RSUExampleScenario.node[654].veinsmobility 	stopTime 	2000
scalar RSUExampleScenario.node[654].veinsmobility 	minSpeed 	0.25202565606171
scalar RSUExampleScenario.node[654].veinsmobility 	maxSpeed 	13.997551852928
scalar RSUExampleScenario.node[654].veinsmobility 	totalDistance 	370.58706050662
scalar RSUExampleScenario.node[654].veinsmobility 	totalCO2Emission 	128.98117620207
scalar RSUExampleScenario.node[655].veinsmobility 	startTime 	1965.1
scalar RSUExampleScenario.node[655].veinsmobility 	totalTime 	34.8
scalar RSUExampleScenario.node[655].veinsmobility 	stopTime 	2000
scalar RSUExampleScenario.node[655].veinsmobility 	minSpeed 	0.25773653531261
scalar RSUExampleScenario.node[655].veinsmobility 	maxSpeed 	13.99762671673
scalar RSUExampleScenario.node[655].veinsmobility 	totalDistance 	331.02527052556
scalar RSUExampleScenario.node[655].veinsmobility 	totalCO2Emission 	121.36279808087
scalar RSUExampleScenario.node[656].veinsmobility 	startTime 	1968.1
scalar RSUExampleScenario.node[656].veinsmobility 	totalTime 	31.8
scalar RSUExampleScenario.node[656].veinsmobility 	stopTime 	2000
scalar RSUExampleScenario.node[656].veinsmobility 	minSpeed 	0.25338479798986
scalar RSUExampleScenario.node[656].veinsmobility 	maxSpeed 	13.983486170997
scalar RSUExampleScenario.node[656].veinsmobility 	totalDistance 	288.08288921529
scalar RSUExampleScenario.node[656].veinsmobility 	totalCO2Emission 	114.49729117375
scalar RSUExampleScenario.node[657].veinsmobility 	startTime 	1971.1
scalar RSUExampleScenario.node[657].veinsmobility 	totalTime 	28.8
scalar RSUExampleScenario.node[657].veinsmobility 	stopTime 	2000
scalar RSUExampleScenario.node[657].veinsmobility 	minSpeed 	0.25069049361069
scalar RSUExampleScenario.node[657].veinsmobility 	maxSpeed 	13.886845020808
scalar RSUExampleScenario.node[657].veinsmobility 	totalDistance 	249.18918728573
scalar RSUExampleScenario.node[657].veinsmobility 	totalCO2Emission 	98.444109887095
scalar RSUExampleScenario.node[658].veinsmobility 	startTime 	1974.1
scalar RSUExampleScenario.node[658].veinsmobility 	totalTime 	25.8
scalar RSUExampleScenario.node[658].veinsmobility 	stopTime 	2000
scalar RSUExampleScenario.node[658].veinsmobility 	minSpeed 	0.25290637669177
scalar RSUExampleScenario.node[658].veinsmobility 	maxSpeed 	13.873604760382
scalar RSUExampleScenario.node[658].veinsmobility 	totalDistance 	226.084255845
scalar RSUExampleScenario.node[658].veinsmobility 	totalCO2Emission 	83.101700484718
scalar RSUExampleScenario.node[659].veinsmobility 	startTime 	1977.1
scalar RSUExampleScenario.node[659].veinsmobility 	totalTime 	22.8
scalar RSUExampleScenario.node[659].veinsmobility 	stopTime 	2000
scalar RSUExampleScenario.node[659].veinsmobility 	minSpeed 	0.2527297965379
scalar RSUExampleScenario.node[659].veinsmobility 	maxSpeed 	13.873996489474
scalar RSUExampleScenario.node[659].veinsmobility 	totalDistance 	208.58111403279
scalar RSUExampleScenario.node[659].veinsmobility 	totalCO2Emission 	78.371019513398
scalar RSUExampleScenario.node[660].veinsmobility 	startTime 	1980.1
scalar RSUExampleScenario.node[660].veinsmobility 	totalTime 	19.8
scalar RSUExampleScenario.node[660].veinsmobility 	stopTime 	2000
scalar RSUExampleScenario.node[660].veinsmobility 	minSpeed 	0.25242805254785
scalar RSUExampleScenario.node[660].veinsmobility 	maxSpeed 	13.889884332959
scalar RSUExampleScenario.node[660].veinsmobility 	totalDistance 	174.77038684324
scalar RSUExampleScenario.node[660].veinsmobility 	totalCO2Emission 	75.664435866519
scalar RSUExampleScenario.node[661].veinsmobility 	startTime 	1983.1
scalar RSUExampleScenario.node[661].veinsmobility 	totalTime 	16.8
scalar RSUExampleScenario.node[661].veinsmobility 	stopTime 	2000
scalar RSUExampleScenario.node[661].veinsmobility 	minSpeed 	0.24889643534739
scalar RSUExampleScenario.node[661].veinsmobility 	maxSpeed 	13.876950825017
scalar RSUExampleScenario.node[661].veinsmobility 	totalDistance 	137.83760076044
scalar RSUExampleScenario.node[661].veinsmobility 	totalCO2Emission 	58.196261782285
scalar RSUExampleScenario.node[662].veinsmobility 	startTime 	1986.1
scalar RSUExampleScenario.node[662].veinsmobility 	totalTime 	13.8
scalar RSUExampleScenario.node[662].veinsmobility 	stopTime 	2000
scalar RSUExampleScenario.node[662].veinsmobility 	minSpeed 	0.24843932492845
scalar RSUExampleScenario.node[662].veinsmobility 	maxSpeed 	13.88092900804
scalar RSUExampleScenario.node[662].veinsmobility 	totalDistance 	117.00719828765
scalar RSUExampleScenario.node[662].veinsmobility 	totalCO2Emission 	42.802379450399
scalar RSUExampleScenario.node[663].veinsmobility 	startTime 	1989.1
scalar RSUExampleScenario.node[663].veinsmobility 	totalTime 	10.8
scalar RSUExampleScenario.node[663].veinsmobility 	stopTime 	2000
scalar RSUExampleScenario.node[663].veinsmobility 	minSpeed 	0.24814972085459
scalar RSUExampleScenario.node[663].veinsmobility 	maxSpeed 	13.87670022503
scalar RSUExampleScenario.node[663].veinsmobility 	totalDistance 	97.867983519146
scalar RSUExampleScenario.node[663].veinsmobility 	totalCO2Emission 	39.216757721766
scalar RSUExampleScenario.node[664].veinsmobility 	startTime 	1992.1
scalar RSUExampleScenario.node[664].veinsmobility 	totalTime 	7.8
scalar RSUExampleScenario.node[664].veinsmobility 	stopTime 	2000
scalar RSUExampleScenario.node[664].veinsmobility 	minSpeed 	0.25471009363513
scalar RSUExampleScenario.node[664].veinsmobility 	maxSpeed 	13.889725101844
scalar RSUExampleScenario.node[664].veinsmobility 	totalDistance 	59.640489879526
scalar RSUExampleScenario.node[664].veinsmobility 	totalCO2Emission 	35.576137797302
scalar RSUExampleScenario.node[665].veinsmobility 	startTime 	1995.1
scalar RSUExampleScenario.node[665].veinsmobility 	totalTime 	4.8
scalar RSUExampleScenario.node[665].veinsmobility 	stopTime 	2000
scalar RSUExampleScenario.node[665].veinsmobility 	minSpeed 	0.25519615146378
scalar RSUExampleScenario.node[665].veinsmobility 	maxSpeed 	9.1676221710754
scalar RSUExampleScenario.node[665].veinsmobility 	totalDistance 	23.233477761521
scalar RSUExampleScenario.node[665].veinsmobility 	totalCO2Emission 	16.759709158991
scalar RSUExampleScenario.node[666].veinsmobility 	startTime 	1998.1
scalar RSUExampleScenario.node[666].veinsmobility 	totalTime 	1.8
scalar RSUExampleScenario.node[666].veinsmobility 	stopTime 	2000
scalar RSUExampleScenario.node[666].veinsmobility 	minSpeed 	0.25459672594653
scalar RSUExampleScenario.node[666].veinsmobility 	maxSpeed 	3.9617038165567
scalar RSUExampleScenario.node[666].veinsmobility 	totalDistance 	3.9112344622495
scalar RSUExampleScenario.node[666].veinsmobility 	totalCO2Emission 	4.0600798709738
