version 2
run statistic1-543-20150314-05:36:34-23808
attr c 24
attr configname statistic1
attr datetime 20150314-05:36:34
attr experiment statistic1
attr inifile omnetpp.ini
attr iterationvars "$p=1/20, $c=24"
attr iterationvars2 "$p=1/20, $c=24, $repetition=43"
attr measurement "$p=1/20, $c=24"
attr network RSUExampleScenario
attr p 1/20
attr processid 23808
attr repetition 43
attr replication #43
attr resultdir results
attr runnumber 543
attr seedset 543

scalar . 	c 	24
scalar RSUExampleScenario.rsu[0].appl 	NumberofCH 	3
scalar RSUExampleScenario.rsu[0].appl 	NumberofON 	68
scalar RSUExampleScenario.rsu[0].appl 	NumberofFN 	29
scalar RSUExampleScenario.rsu[0].appl 	meanClusterNodes 	3
scalar RSUExampleScenario.rsu[0].appl 	varClusterNodes 	1.7320508075689
scalar RSUExampleScenario.rsu[0].appl 	sumCHutility 	105.30335355369
scalar RSUExampleScenario.rsu[0].appl 	meanCHutility 	3
scalar RSUExampleScenario.rsu[0].appl 	varCHutility 	1.7320508075689
scalar RSUExampleScenario.rsu[0].appl 	sumDiffCHutility 	-3.060838869982
scalar RSUExampleScenario.rsu[0].appl 	meanDiffCHutility 	3
scalar RSUExampleScenario.rsu[0].appl 	varDiffCHutility 	1.7320508075689
scalar RSUExampleScenario.rsu[0].appl 	expectedCHutility 	102.24251468371
scalar RSUExampleScenario.rsu[0].appl 	meanExpectedCHutility 	3
scalar RSUExampleScenario.rsu[0].appl 	varExpectedCHutility 	1.7320508075689
