version 2
run statisticLeach-378-20150323-07:54:58-11100
attr c 10
attr configname statisticLeach
attr datetime 20150323-07:54:58
attr experiment statisticLeach
attr inifile omnetpp.ini
attr iterationvars "$p=1/10, $c=10"
attr iterationvars2 "$p=1/10, $c=10, $repetition=8"
attr measurement "$p=1/10, $c=10"
attr network RSUExampleScenario
attr p 1/10
attr processid 11100
attr repetition 8
attr replication #8
attr resultdir results
attr runnumber 378
attr seedset 378

scalar . 	c 	10
scalar RSUExampleScenario.node[0].appl 	meanClusterNodes 	5
scalar RSUExampleScenario.node[0].appl 	meanClusterHeadUtility 	8.4394966082134
scalar RSUExampleScenario.node[0].appl 	NumberofCH 	0.10810810810811
scalar RSUExampleScenario.node[0].appl 	NumberofON 	0.21621621621622
scalar RSUExampleScenario.node[0].appl 	NumberofFN 	0.67567567567568
scalar RSUExampleScenario.node[0].veinsmobility 	startTime 	0.1
scalar RSUExampleScenario.node[0].veinsmobility 	totalTime 	449.9
scalar RSUExampleScenario.node[0].veinsmobility 	stopTime 	450
scalar RSUExampleScenario.node[0].veinsmobility 	minSpeed 	0
scalar RSUExampleScenario.node[0].veinsmobility 	maxSpeed 	13.999846838857
scalar RSUExampleScenario.node[0].veinsmobility 	totalDistance 	3132.5599263416
scalar RSUExampleScenario.node[0].veinsmobility 	totalCO2Emission 	836.96883528106
scalar RSUExampleScenario.node[1].appl 	meanClusterNodes 	2.5
scalar RSUExampleScenario.node[1].appl 	meanClusterHeadUtility 	8.8922397773349
scalar RSUExampleScenario.node[1].appl 	NumberofCH 	0.10810810810811
scalar RSUExampleScenario.node[1].appl 	NumberofON 	0.37837837837838
scalar RSUExampleScenario.node[1].appl 	NumberofFN 	0.51351351351351
scalar RSUExampleScenario.node[1].veinsmobility 	startTime 	2.5
scalar RSUExampleScenario.node[1].veinsmobility 	totalTime 	447.5
scalar RSUExampleScenario.node[1].veinsmobility 	stopTime 	450
scalar RSUExampleScenario.node[1].veinsmobility 	minSpeed 	0
scalar RSUExampleScenario.node[1].veinsmobility 	maxSpeed 	13.999865779139
scalar RSUExampleScenario.node[1].veinsmobility 	totalDistance 	3079.0218237482
scalar RSUExampleScenario.node[1].veinsmobility 	totalCO2Emission 	828.91222283565
scalar RSUExampleScenario.node[10].appl 	meanClusterNodes 	2.8333333333333
scalar RSUExampleScenario.node[10].appl 	meanClusterHeadUtility 	5.657122800841
scalar RSUExampleScenario.node[10].appl 	NumberofCH 	0.16216216216216
scalar RSUExampleScenario.node[10].appl 	NumberofON 	0.48648648648649
scalar RSUExampleScenario.node[10].appl 	NumberofFN 	0.35135135135135
scalar RSUExampleScenario.node[10].veinsmobility 	startTime 	24.2
scalar RSUExampleScenario.node[10].veinsmobility 	totalTime 	425.8
scalar RSUExampleScenario.node[10].veinsmobility 	stopTime 	450
scalar RSUExampleScenario.node[10].veinsmobility 	minSpeed 	0
scalar RSUExampleScenario.node[10].veinsmobility 	maxSpeed 	13.999972081478
scalar RSUExampleScenario.node[10].veinsmobility 	totalDistance 	2793.4835556239
scalar RSUExampleScenario.node[10].veinsmobility 	totalCO2Emission 	757.65190633601
scalar RSUExampleScenario.node[11].appl 	meanClusterNodes 	5.5
scalar RSUExampleScenario.node[11].appl 	meanClusterHeadUtility 	9.3848651742663
scalar RSUExampleScenario.node[11].appl 	NumberofCH 	0.10810810810811
scalar RSUExampleScenario.node[11].appl 	NumberofON 	0.56756756756757
scalar RSUExampleScenario.node[11].appl 	NumberofFN 	0.32432432432432
scalar RSUExampleScenario.node[11].veinsmobility 	startTime 	26.6
scalar RSUExampleScenario.node[11].veinsmobility 	totalTime 	423.4
scalar RSUExampleScenario.node[11].veinsmobility 	stopTime 	450
scalar RSUExampleScenario.node[11].veinsmobility 	minSpeed 	0
scalar RSUExampleScenario.node[11].veinsmobility 	maxSpeed 	13.999937968734
scalar RSUExampleScenario.node[11].veinsmobility 	totalDistance 	2753.5031701217
scalar RSUExampleScenario.node[11].veinsmobility 	totalCO2Emission 	754.68739697842
scalar RSUExampleScenario.node[12].appl 	meanClusterNodes 	4.1666666666667
scalar RSUExampleScenario.node[12].appl 	meanClusterHeadUtility 	5.581762354623
scalar RSUExampleScenario.node[12].appl 	NumberofCH 	0.16216216216216
scalar RSUExampleScenario.node[12].appl 	NumberofON 	0.7027027027027
scalar RSUExampleScenario.node[12].appl 	NumberofFN 	0.13513513513514
scalar RSUExampleScenario.node[12].veinsmobility 	startTime 	29
scalar RSUExampleScenario.node[12].veinsmobility 	totalTime 	421
scalar RSUExampleScenario.node[12].veinsmobility 	stopTime 	450
scalar RSUExampleScenario.node[12].veinsmobility 	minSpeed 	0
scalar RSUExampleScenario.node[12].veinsmobility 	maxSpeed 	13.999855455577
scalar RSUExampleScenario.node[12].veinsmobility 	totalDistance 	2723.858141452
scalar RSUExampleScenario.node[12].veinsmobility 	totalCO2Emission 	747.90998242227
scalar RSUExampleScenario.node[13].appl 	meanClusterNodes 	5.3333333333333
scalar RSUExampleScenario.node[13].appl 	meanClusterHeadUtility 	5.9169300095731
scalar RSUExampleScenario.node[13].appl 	NumberofCH 	0.16216216216216
scalar RSUExampleScenario.node[13].appl 	NumberofON 	0.59459459459459
scalar RSUExampleScenario.node[13].appl 	NumberofFN 	0.24324324324324
scalar RSUExampleScenario.node[13].veinsmobility 	startTime 	31.4
scalar RSUExampleScenario.node[13].veinsmobility 	totalTime 	418.6
scalar RSUExampleScenario.node[13].veinsmobility 	stopTime 	450
scalar RSUExampleScenario.node[13].veinsmobility 	minSpeed 	0
scalar RSUExampleScenario.node[13].veinsmobility 	maxSpeed 	13.999926059099
scalar RSUExampleScenario.node[13].veinsmobility 	totalDistance 	2681.1785497572
scalar RSUExampleScenario.node[13].veinsmobility 	totalCO2Emission 	741.50530249958
scalar RSUExampleScenario.node[14].appl 	meanClusterNodes 	3.25
scalar RSUExampleScenario.node[14].appl 	meanClusterHeadUtility 	8.3671752570667
scalar RSUExampleScenario.node[14].appl 	NumberofCH 	0.10810810810811
scalar RSUExampleScenario.node[14].appl 	NumberofON 	0.67567567567568
scalar RSUExampleScenario.node[14].appl 	NumberofFN 	0.21621621621622
scalar RSUExampleScenario.node[14].veinsmobility 	startTime 	33.8
scalar RSUExampleScenario.node[14].veinsmobility 	totalTime 	416.2
scalar RSUExampleScenario.node[14].veinsmobility 	stopTime 	450
scalar RSUExampleScenario.node[14].veinsmobility 	minSpeed 	0
scalar RSUExampleScenario.node[14].veinsmobility 	maxSpeed 	13.999957525483
scalar RSUExampleScenario.node[14].veinsmobility 	totalDistance 	2653.3520512935
scalar RSUExampleScenario.node[14].veinsmobility 	totalCO2Emission 	735.97910645724
scalar RSUExampleScenario.node[15].appl 	meanClusterNodes 	2.5
scalar RSUExampleScenario.node[15].appl 	meanClusterHeadUtility 	16.808777192007
scalar RSUExampleScenario.node[15].appl 	NumberofCH 	0.054054054054054
scalar RSUExampleScenario.node[15].appl 	NumberofON 	0.67567567567568
scalar RSUExampleScenario.node[15].appl 	NumberofFN 	0.27027027027027
scalar RSUExampleScenario.node[15].veinsmobility 	startTime 	36.2
scalar RSUExampleScenario.node[15].veinsmobility 	totalTime 	413.8
scalar RSUExampleScenario.node[15].veinsmobility 	stopTime 	450
scalar RSUExampleScenario.node[15].veinsmobility 	minSpeed 	0
scalar RSUExampleScenario.node[15].veinsmobility 	maxSpeed 	13.999962429169
scalar RSUExampleScenario.node[15].veinsmobility 	totalDistance 	2614.9945856948
scalar RSUExampleScenario.node[15].veinsmobility 	totalCO2Emission 	730.9557916753
scalar RSUExampleScenario.node[16].appl 	meanClusterNodes 	0
scalar RSUExampleScenario.node[16].appl 	meanClusterHeadUtility 	0
scalar RSUExampleScenario.node[16].appl 	NumberofCH 	0.054054054054054
scalar RSUExampleScenario.node[16].appl 	NumberofON 	0
scalar RSUExampleScenario.node[16].appl 	NumberofFN 	0.94594594594595
scalar RSUExampleScenario.node[16].veinsmobility 	startTime 	38.6
scalar RSUExampleScenario.node[16].veinsmobility 	totalTime 	411.4
scalar RSUExampleScenario.node[16].veinsmobility 	stopTime 	450
scalar RSUExampleScenario.node[16].veinsmobility 	minSpeed 	0
scalar RSUExampleScenario.node[16].veinsmobility 	maxSpeed 	13.999772859728
scalar RSUExampleScenario.node[16].veinsmobility 	totalDistance 	2583.7420475629
scalar RSUExampleScenario.node[16].veinsmobility 	totalCO2Emission 	726.16420146392
scalar RSUExampleScenario.node[17].appl 	meanClusterNodes 	7.25
scalar RSUExampleScenario.node[17].appl 	meanClusterHeadUtility 	8.8308921496982
scalar RSUExampleScenario.node[17].appl 	NumberofCH 	0.10810810810811
scalar RSUExampleScenario.node[17].appl 	NumberofON 	0.48648648648649
scalar RSUExampleScenario.node[17].appl 	NumberofFN 	0.40540540540541
scalar RSUExampleScenario.node[17].veinsmobility 	startTime 	41
scalar RSUExampleScenario.node[17].veinsmobility 	totalTime 	409
scalar RSUExampleScenario.node[17].veinsmobility 	stopTime 	450
scalar RSUExampleScenario.node[17].veinsmobility 	minSpeed 	0
scalar RSUExampleScenario.node[17].veinsmobility 	maxSpeed 	13.999820521662
scalar RSUExampleScenario.node[17].veinsmobility 	totalDistance 	2540.9261722031
scalar RSUExampleScenario.node[17].veinsmobility 	totalCO2Emission 	717.48615010806
scalar RSUExampleScenario.node[18].appl 	meanClusterNodes 	3.5
scalar RSUExampleScenario.node[18].appl 	meanClusterHeadUtility 	9.2445322424792
scalar RSUExampleScenario.node[18].appl 	NumberofCH 	0.10810810810811
scalar RSUExampleScenario.node[18].appl 	NumberofON 	0.81081081081081
scalar RSUExampleScenario.node[18].appl 	NumberofFN 	0.081081081081081
scalar RSUExampleScenario.node[18].veinsmobility 	startTime 	43.4
scalar RSUExampleScenario.node[18].veinsmobility 	totalTime 	406.6
scalar RSUExampleScenario.node[18].veinsmobility 	stopTime 	450
scalar RSUExampleScenario.node[18].veinsmobility 	minSpeed 	0
scalar RSUExampleScenario.node[18].veinsmobility 	maxSpeed 	13.999968421443
scalar RSUExampleScenario.node[18].veinsmobility 	totalDistance 	2509.4695276885
scalar RSUExampleScenario.node[18].veinsmobility 	totalCO2Emission 	707.8465773246
scalar RSUExampleScenario.node[19].appl 	meanClusterNodes 	6.5
scalar RSUExampleScenario.node[19].appl 	meanClusterHeadUtility 	9.1822054381868
scalar RSUExampleScenario.node[19].appl 	NumberofCH 	0.10810810810811
scalar RSUExampleScenario.node[19].appl 	NumberofON 	0.45945945945946
scalar RSUExampleScenario.node[19].appl 	NumberofFN 	0.43243243243243
scalar RSUExampleScenario.node[19].veinsmobility 	startTime 	45.8
scalar RSUExampleScenario.node[19].veinsmobility 	totalTime 	404.2
scalar RSUExampleScenario.node[19].veinsmobility 	stopTime 	450
scalar RSUExampleScenario.node[19].veinsmobility 	minSpeed 	0
scalar RSUExampleScenario.node[19].veinsmobility 	maxSpeed 	13.999808583485
scalar RSUExampleScenario.node[19].veinsmobility 	totalDistance 	2472.5517235001
scalar RSUExampleScenario.node[19].veinsmobility 	totalCO2Emission 	707.0063558385
scalar RSUExampleScenario.node[2].appl 	meanClusterNodes 	3.75
scalar RSUExampleScenario.node[2].appl 	meanClusterHeadUtility 	9.265532146206
scalar RSUExampleScenario.node[2].appl 	NumberofCH 	0.10810810810811
scalar RSUExampleScenario.node[2].appl 	NumberofON 	0.40540540540541
scalar RSUExampleScenario.node[2].appl 	NumberofFN 	0.48648648648649
scalar RSUExampleScenario.node[2].veinsmobility 	startTime 	4.9
scalar RSUExampleScenario.node[2].veinsmobility 	totalTime 	445.1
scalar RSUExampleScenario.node[2].veinsmobility 	stopTime 	450
scalar RSUExampleScenario.node[2].veinsmobility 	minSpeed 	0
scalar RSUExampleScenario.node[2].veinsmobility 	maxSpeed 	13.999966320239
scalar RSUExampleScenario.node[2].veinsmobility 	totalDistance 	3037.5094448192
scalar RSUExampleScenario.node[2].veinsmobility 	totalCO2Emission 	820.99015916465
scalar RSUExampleScenario.node[20].appl 	meanClusterNodes 	4
scalar RSUExampleScenario.node[20].appl 	meanClusterHeadUtility 	10.837851092105
scalar RSUExampleScenario.node[20].appl 	NumberofCH 	0.081081081081081
scalar RSUExampleScenario.node[20].appl 	NumberofON 	0.62162162162162
scalar RSUExampleScenario.node[20].appl 	NumberofFN 	0.2972972972973
scalar RSUExampleScenario.node[20].veinsmobility 	startTime 	48.3
scalar RSUExampleScenario.node[20].veinsmobility 	totalTime 	401.7
scalar RSUExampleScenario.node[20].veinsmobility 	stopTime 	450
scalar RSUExampleScenario.node[20].veinsmobility 	minSpeed 	0
scalar RSUExampleScenario.node[20].veinsmobility 	maxSpeed 	13.999936536392
scalar RSUExampleScenario.node[20].veinsmobility 	totalDistance 	2440.7169621049
scalar RSUExampleScenario.node[20].veinsmobility 	totalCO2Emission 	699.97802888917
scalar RSUExampleScenario.node[21].appl 	meanClusterNodes 	4.25
scalar RSUExampleScenario.node[21].appl 	meanClusterHeadUtility 	8.516766467233
scalar RSUExampleScenario.node[21].appl 	NumberofCH 	0.10810810810811
scalar RSUExampleScenario.node[21].appl 	NumberofON 	0.67567567567568
scalar RSUExampleScenario.node[21].appl 	NumberofFN 	0.21621621621622
scalar RSUExampleScenario.node[21].veinsmobility 	startTime 	50.7
scalar RSUExampleScenario.node[21].veinsmobility 	totalTime 	399.3
scalar RSUExampleScenario.node[21].veinsmobility 	stopTime 	450
scalar RSUExampleScenario.node[21].veinsmobility 	minSpeed 	0
scalar RSUExampleScenario.node[21].veinsmobility 	maxSpeed 	13.999910711416
scalar RSUExampleScenario.node[21].veinsmobility 	totalDistance 	2404.873401246
scalar RSUExampleScenario.node[21].veinsmobility 	totalCO2Emission 	695.85179344613
scalar RSUExampleScenario.node[22].appl 	meanClusterNodes 	5
scalar RSUExampleScenario.node[22].appl 	meanClusterHeadUtility 	8.1820894072101
scalar RSUExampleScenario.node[22].appl 	NumberofCH 	0.10810810810811
scalar RSUExampleScenario.node[22].appl 	NumberofON 	0.51351351351351
scalar RSUExampleScenario.node[22].appl 	NumberofFN 	0.37837837837838
scalar RSUExampleScenario.node[22].veinsmobility 	startTime 	53.1
scalar RSUExampleScenario.node[22].veinsmobility 	totalTime 	396.9
scalar RSUExampleScenario.node[22].veinsmobility 	stopTime 	450
scalar RSUExampleScenario.node[22].veinsmobility 	minSpeed 	0
scalar RSUExampleScenario.node[22].veinsmobility 	maxSpeed 	13.999889217182
scalar RSUExampleScenario.node[22].veinsmobility 	totalDistance 	2374.8832351695
scalar RSUExampleScenario.node[22].veinsmobility 	totalCO2Emission 	689.02682283761
scalar RSUExampleScenario.node[23].appl 	meanClusterNodes 	4.25
scalar RSUExampleScenario.node[23].appl 	meanClusterHeadUtility 	8.4488223610697
scalar RSUExampleScenario.node[23].appl 	NumberofCH 	0.10810810810811
scalar RSUExampleScenario.node[23].appl 	NumberofON 	0.7027027027027
scalar RSUExampleScenario.node[23].appl 	NumberofFN 	0.18918918918919
scalar RSUExampleScenario.node[23].veinsmobility 	startTime 	55.5
scalar RSUExampleScenario.node[23].veinsmobility 	totalTime 	394.5
scalar RSUExampleScenario.node[23].veinsmobility 	stopTime 	450
scalar RSUExampleScenario.node[23].veinsmobility 	minSpeed 	0
scalar RSUExampleScenario.node[23].veinsmobility 	maxSpeed 	13.999928500364
scalar RSUExampleScenario.node[23].veinsmobility 	totalDistance 	2335.7246756667
scalar RSUExampleScenario.node[23].veinsmobility 	totalCO2Emission 	685.92248714243
scalar RSUExampleScenario.node[24].appl 	meanClusterNodes 	4.5
scalar RSUExampleScenario.node[24].appl 	meanClusterHeadUtility 	8.3472259778311
scalar RSUExampleScenario.node[24].appl 	NumberofCH 	0.10810810810811
scalar RSUExampleScenario.node[24].appl 	NumberofON 	0.37837837837838
scalar RSUExampleScenario.node[24].appl 	NumberofFN 	0.51351351351351
scalar RSUExampleScenario.node[24].veinsmobility 	startTime 	57.9
scalar RSUExampleScenario.node[24].veinsmobility 	totalTime 	392.1
scalar RSUExampleScenario.node[24].veinsmobility 	stopTime 	450
scalar RSUExampleScenario.node[24].veinsmobility 	minSpeed 	0
scalar RSUExampleScenario.node[24].veinsmobility 	maxSpeed 	13.999980876809
scalar RSUExampleScenario.node[24].veinsmobility 	totalDistance 	2306.4995568313
scalar RSUExampleScenario.node[24].veinsmobility 	totalCO2Emission 	676.71524535337
scalar RSUExampleScenario.node[25].appl 	meanClusterNodes 	3.5
scalar RSUExampleScenario.node[25].appl 	meanClusterHeadUtility 	8.5130796072577
scalar RSUExampleScenario.node[25].appl 	NumberofCH 	0.10810810810811
scalar RSUExampleScenario.node[25].appl 	NumberofON 	0.54054054054054
scalar RSUExampleScenario.node[25].appl 	NumberofFN 	0.35135135135135
scalar RSUExampleScenario.node[25].veinsmobility 	startTime 	60.3
scalar RSUExampleScenario.node[25].veinsmobility 	totalTime 	389.7
scalar RSUExampleScenario.node[25].veinsmobility 	stopTime 	450
scalar RSUExampleScenario.node[25].veinsmobility 	minSpeed 	0
scalar RSUExampleScenario.node[25].veinsmobility 	maxSpeed 	13.999912016662
scalar RSUExampleScenario.node[25].veinsmobility 	totalDistance 	2267.378699836
scalar RSUExampleScenario.node[25].veinsmobility 	totalCO2Emission 	672.11650716144
scalar RSUExampleScenario.node[26].appl 	meanClusterNodes 	5.5
scalar RSUExampleScenario.node[26].appl 	meanClusterHeadUtility 	9.2864852669728
scalar RSUExampleScenario.node[26].appl 	NumberofCH 	0.10810810810811
scalar RSUExampleScenario.node[26].appl 	NumberofON 	0.43243243243243
scalar RSUExampleScenario.node[26].appl 	NumberofFN 	0.45945945945946
scalar RSUExampleScenario.node[26].veinsmobility 	startTime 	62.7
scalar RSUExampleScenario.node[26].veinsmobility 	totalTime 	387.3
scalar RSUExampleScenario.node[26].veinsmobility 	stopTime 	450
scalar RSUExampleScenario.node[26].veinsmobility 	minSpeed 	0
scalar RSUExampleScenario.node[26].veinsmobility 	maxSpeed 	13.999886944934
scalar RSUExampleScenario.node[26].veinsmobility 	totalDistance 	2238.3015098111
scalar RSUExampleScenario.node[26].veinsmobility 	totalCO2Emission 	667.17962519116
scalar RSUExampleScenario.node[27].appl 	meanClusterNodes 	8
scalar RSUExampleScenario.node[27].appl 	meanClusterHeadUtility 	16.596560855922
scalar RSUExampleScenario.node[27].appl 	NumberofCH 	0.054054054054054
scalar RSUExampleScenario.node[27].appl 	NumberofON 	0.64864864864865
scalar RSUExampleScenario.node[27].appl 	NumberofFN 	0.2972972972973
scalar RSUExampleScenario.node[27].veinsmobility 	startTime 	65.1
scalar RSUExampleScenario.node[27].veinsmobility 	totalTime 	384.9
scalar RSUExampleScenario.node[27].veinsmobility 	stopTime 	450
scalar RSUExampleScenario.node[27].veinsmobility 	minSpeed 	0
scalar RSUExampleScenario.node[27].veinsmobility 	maxSpeed 	13.999980436228
scalar RSUExampleScenario.node[27].veinsmobility 	totalDistance 	2200.7734224725
scalar RSUExampleScenario.node[27].veinsmobility 	totalCO2Emission 	661.99215862728
scalar RSUExampleScenario.node[28].appl 	meanClusterNodes 	7
scalar RSUExampleScenario.node[28].appl 	meanClusterHeadUtility 	7.9783219954876
scalar RSUExampleScenario.node[28].appl 	NumberofCH 	0.10810810810811
scalar RSUExampleScenario.node[28].appl 	NumberofON 	0.43243243243243
scalar RSUExampleScenario.node[28].appl 	NumberofFN 	0.45945945945946
scalar RSUExampleScenario.node[28].veinsmobility 	startTime 	67.5
scalar RSUExampleScenario.node[28].veinsmobility 	totalTime 	382.5
scalar RSUExampleScenario.node[28].veinsmobility 	stopTime 	450
scalar RSUExampleScenario.node[28].veinsmobility 	minSpeed 	0
scalar RSUExampleScenario.node[28].veinsmobility 	maxSpeed 	13.9999663101
scalar RSUExampleScenario.node[28].veinsmobility 	totalDistance 	2169.1661980908
scalar RSUExampleScenario.node[28].veinsmobility 	totalCO2Emission 	654.15468089117
scalar RSUExampleScenario.node[29].appl 	meanClusterNodes 	7
scalar RSUExampleScenario.node[29].appl 	meanClusterHeadUtility 	5.6386474780619
scalar RSUExampleScenario.node[29].appl 	NumberofCH 	0.16216216216216
scalar RSUExampleScenario.node[29].appl 	NumberofON 	0.40540540540541
scalar RSUExampleScenario.node[29].appl 	NumberofFN 	0.43243243243243
scalar RSUExampleScenario.node[29].veinsmobility 	startTime 	69.9
scalar RSUExampleScenario.node[29].veinsmobility 	totalTime 	380.1
scalar RSUExampleScenario.node[29].veinsmobility 	stopTime 	450
scalar RSUExampleScenario.node[29].veinsmobility 	minSpeed 	0
scalar RSUExampleScenario.node[29].veinsmobility 	maxSpeed 	13.999954404794
scalar RSUExampleScenario.node[29].veinsmobility 	totalDistance 	2133.7679574409
scalar RSUExampleScenario.node[29].veinsmobility 	totalCO2Emission 	650.79794150411
scalar RSUExampleScenario.node[3].appl 	meanClusterNodes 	2.3333333333333
scalar RSUExampleScenario.node[3].appl 	meanClusterHeadUtility 	11.756032244675
scalar RSUExampleScenario.node[3].appl 	NumberofCH 	0.081081081081081
scalar RSUExampleScenario.node[3].appl 	NumberofON 	0.78378378378378
scalar RSUExampleScenario.node[3].appl 	NumberofFN 	0.13513513513514
scalar RSUExampleScenario.node[3].veinsmobility 	startTime 	7.3
scalar RSUExampleScenario.node[3].veinsmobility 	totalTime 	442.7
scalar RSUExampleScenario.node[3].veinsmobility 	stopTime 	450
scalar RSUExampleScenario.node[3].veinsmobility 	minSpeed 	0
scalar RSUExampleScenario.node[3].veinsmobility 	maxSpeed 	13.999989579823
scalar RSUExampleScenario.node[3].veinsmobility 	totalDistance 	2992.8105896922
scalar RSUExampleScenario.node[3].veinsmobility 	totalCO2Emission 	814.8253004615
scalar RSUExampleScenario.node[30].appl 	meanClusterNodes 	5.5
scalar RSUExampleScenario.node[30].appl 	meanClusterHeadUtility 	8.3981172848396
scalar RSUExampleScenario.node[30].appl 	NumberofCH 	0.10810810810811
scalar RSUExampleScenario.node[30].appl 	NumberofON 	0.2972972972973
scalar RSUExampleScenario.node[30].appl 	NumberofFN 	0.59459459459459
scalar RSUExampleScenario.node[30].veinsmobility 	startTime 	72.4
scalar RSUExampleScenario.node[30].veinsmobility 	totalTime 	377.6
scalar RSUExampleScenario.node[30].veinsmobility 	stopTime 	450
scalar RSUExampleScenario.node[30].veinsmobility 	minSpeed 	0
scalar RSUExampleScenario.node[30].veinsmobility 	maxSpeed 	13.999894391403
scalar RSUExampleScenario.node[30].veinsmobility 	totalDistance 	2101.904851361
scalar RSUExampleScenario.node[30].veinsmobility 	totalCO2Emission 	644.95075711134
scalar RSUExampleScenario.node[31].appl 	meanClusterNodes 	3
scalar RSUExampleScenario.node[31].appl 	meanClusterHeadUtility 	15.686585734227
scalar RSUExampleScenario.node[31].appl 	NumberofCH 	0.054054054054054
scalar RSUExampleScenario.node[31].appl 	NumberofON 	0.81081081081081
scalar RSUExampleScenario.node[31].appl 	NumberofFN 	0.13513513513514
scalar RSUExampleScenario.node[31].veinsmobility 	startTime 	74.8
scalar RSUExampleScenario.node[31].veinsmobility 	totalTime 	375.2
scalar RSUExampleScenario.node[31].veinsmobility 	stopTime 	450
scalar RSUExampleScenario.node[31].veinsmobility 	minSpeed 	0
scalar RSUExampleScenario.node[31].veinsmobility 	maxSpeed 	13.999423246658
scalar RSUExampleScenario.node[31].veinsmobility 	totalDistance 	2065.3161523126
scalar RSUExampleScenario.node[31].veinsmobility 	totalCO2Emission 	639.28120289507
scalar RSUExampleScenario.node[32].appl 	meanClusterNodes 	4.3333333333333
scalar RSUExampleScenario.node[32].appl 	meanClusterHeadUtility 	11.607363303616
scalar RSUExampleScenario.node[32].appl 	NumberofCH 	0.081081081081081
scalar RSUExampleScenario.node[32].appl 	NumberofON 	0.67567567567568
scalar RSUExampleScenario.node[32].appl 	NumberofFN 	0.24324324324324
scalar RSUExampleScenario.node[32].veinsmobility 	startTime 	77.2
scalar RSUExampleScenario.node[32].veinsmobility 	totalTime 	372.8
scalar RSUExampleScenario.node[32].veinsmobility 	stopTime 	450
scalar RSUExampleScenario.node[32].veinsmobility 	minSpeed 	0
scalar RSUExampleScenario.node[32].veinsmobility 	maxSpeed 	13.999971675947
scalar RSUExampleScenario.node[32].veinsmobility 	totalDistance 	2031.4379265
scalar RSUExampleScenario.node[32].veinsmobility 	totalCO2Emission 	632.51546319606
scalar RSUExampleScenario.node[33].appl 	meanClusterNodes 	8.5
scalar RSUExampleScenario.node[33].appl 	meanClusterHeadUtility 	16.31312258103
scalar RSUExampleScenario.node[33].appl 	NumberofCH 	0.054054054054054
scalar RSUExampleScenario.node[33].appl 	NumberofON 	0.78378378378378
scalar RSUExampleScenario.node[33].appl 	NumberofFN 	0.16216216216216
scalar RSUExampleScenario.node[33].veinsmobility 	startTime 	79.6
scalar RSUExampleScenario.node[33].veinsmobility 	totalTime 	370.4
scalar RSUExampleScenario.node[33].veinsmobility 	stopTime 	450
scalar RSUExampleScenario.node[33].veinsmobility 	minSpeed 	0
scalar RSUExampleScenario.node[33].veinsmobility 	maxSpeed 	13.99954079655
scalar RSUExampleScenario.node[33].veinsmobility 	totalDistance 	1998.013277777
scalar RSUExampleScenario.node[33].veinsmobility 	totalCO2Emission 	628.47947024371
scalar RSUExampleScenario.node[34].appl 	meanClusterNodes 	8.25
scalar RSUExampleScenario.node[34].appl 	meanClusterHeadUtility 	8.1405302032065
scalar RSUExampleScenario.node[34].appl 	NumberofCH 	0.10810810810811
scalar RSUExampleScenario.node[34].appl 	NumberofON 	0.37837837837838
scalar RSUExampleScenario.node[34].appl 	NumberofFN 	0.51351351351351
scalar RSUExampleScenario.node[34].veinsmobility 	startTime 	82
scalar RSUExampleScenario.node[34].veinsmobility 	totalTime 	368
scalar RSUExampleScenario.node[34].veinsmobility 	stopTime 	450
scalar RSUExampleScenario.node[34].veinsmobility 	minSpeed 	0
scalar RSUExampleScenario.node[34].veinsmobility 	maxSpeed 	13.999964225725
scalar RSUExampleScenario.node[34].veinsmobility 	totalDistance 	1962.6583454232
scalar RSUExampleScenario.node[34].veinsmobility 	totalCO2Emission 	622.96249955539
scalar RSUExampleScenario.node[35].appl 	meanClusterNodes 	4.3333333333333
scalar RSUExampleScenario.node[35].appl 	meanClusterHeadUtility 	5.7837621384506
scalar RSUExampleScenario.node[35].appl 	NumberofCH 	0.16216216216216
scalar RSUExampleScenario.node[35].appl 	NumberofON 	0.59459459459459
scalar RSUExampleScenario.node[35].appl 	NumberofFN 	0.24324324324324
scalar RSUExampleScenario.node[35].veinsmobility 	startTime 	84.4
scalar RSUExampleScenario.node[35].veinsmobility 	totalTime 	365.6
scalar RSUExampleScenario.node[35].veinsmobility 	stopTime 	450
scalar RSUExampleScenario.node[35].veinsmobility 	minSpeed 	0
scalar RSUExampleScenario.node[35].veinsmobility 	maxSpeed 	13.99964470678
scalar RSUExampleScenario.node[35].veinsmobility 	totalDistance 	1929.7178872508
scalar RSUExampleScenario.node[35].veinsmobility 	totalCO2Emission 	618.50084819581
scalar RSUExampleScenario.node[36].appl 	meanClusterNodes 	5.75
scalar RSUExampleScenario.node[36].appl 	meanClusterHeadUtility 	9.2778981367213
scalar RSUExampleScenario.node[36].appl 	NumberofCH 	0.10810810810811
scalar RSUExampleScenario.node[36].appl 	NumberofON 	0.51351351351351
scalar RSUExampleScenario.node[36].appl 	NumberofFN 	0.37837837837838
scalar RSUExampleScenario.node[36].veinsmobility 	startTime 	86.8
scalar RSUExampleScenario.node[36].veinsmobility 	totalTime 	363.2
scalar RSUExampleScenario.node[36].veinsmobility 	stopTime 	450
scalar RSUExampleScenario.node[36].veinsmobility 	minSpeed 	0
scalar RSUExampleScenario.node[36].veinsmobility 	maxSpeed 	13.999796814991
scalar RSUExampleScenario.node[36].veinsmobility 	totalDistance 	1896.8348548923
scalar RSUExampleScenario.node[36].veinsmobility 	totalCO2Emission 	611.08338860055
scalar RSUExampleScenario.node[37].appl 	meanClusterNodes 	6
scalar RSUExampleScenario.node[37].appl 	meanClusterHeadUtility 	10.557197154062
scalar RSUExampleScenario.node[37].appl 	NumberofCH 	0.081081081081081
scalar RSUExampleScenario.node[37].appl 	NumberofON 	0.59459459459459
scalar RSUExampleScenario.node[37].appl 	NumberofFN 	0.32432432432432
scalar RSUExampleScenario.node[37].veinsmobility 	startTime 	89.2
scalar RSUExampleScenario.node[37].veinsmobility 	totalTime 	360.8
scalar RSUExampleScenario.node[37].veinsmobility 	stopTime 	450
scalar RSUExampleScenario.node[37].veinsmobility 	minSpeed 	0
scalar RSUExampleScenario.node[37].veinsmobility 	maxSpeed 	13.999864294312
scalar RSUExampleScenario.node[37].veinsmobility 	totalDistance 	1863.3523941668
scalar RSUExampleScenario.node[37].veinsmobility 	totalCO2Emission 	606.29336710905
scalar RSUExampleScenario.node[38].appl 	meanClusterNodes 	5
scalar RSUExampleScenario.node[38].appl 	meanClusterHeadUtility 	16.948093466767
scalar RSUExampleScenario.node[38].appl 	NumberofCH 	0.054054054054054
scalar RSUExampleScenario.node[38].appl 	NumberofON 	0.56756756756757
scalar RSUExampleScenario.node[38].appl 	NumberofFN 	0.37837837837838
scalar RSUExampleScenario.node[38].veinsmobility 	startTime 	91.6
scalar RSUExampleScenario.node[38].veinsmobility 	totalTime 	358.4
scalar RSUExampleScenario.node[38].veinsmobility 	stopTime 	450
scalar RSUExampleScenario.node[38].veinsmobility 	minSpeed 	0
scalar RSUExampleScenario.node[38].veinsmobility 	maxSpeed 	13.999929965546
scalar RSUExampleScenario.node[38].veinsmobility 	totalDistance 	1829.1358601204
scalar RSUExampleScenario.node[38].veinsmobility 	totalCO2Emission 	600.30301212888
scalar RSUExampleScenario.node[39].appl 	meanClusterNodes 	5
scalar RSUExampleScenario.node[39].appl 	meanClusterHeadUtility 	8.054931242676
scalar RSUExampleScenario.node[39].appl 	NumberofCH 	0.10810810810811
scalar RSUExampleScenario.node[39].appl 	NumberofON 	0.81081081081081
scalar RSUExampleScenario.node[39].appl 	NumberofFN 	0.081081081081081
scalar RSUExampleScenario.node[39].veinsmobility 	startTime 	94
scalar RSUExampleScenario.node[39].veinsmobility 	totalTime 	356
scalar RSUExampleScenario.node[39].veinsmobility 	stopTime 	450
scalar RSUExampleScenario.node[39].veinsmobility 	minSpeed 	0
scalar RSUExampleScenario.node[39].veinsmobility 	maxSpeed 	13.999900570854
scalar RSUExampleScenario.node[39].veinsmobility 	totalDistance 	1795.5431883751
scalar RSUExampleScenario.node[39].veinsmobility 	totalCO2Emission 	593.77214796175
scalar RSUExampleScenario.node[4].appl 	meanClusterNodes 	1.1666666666667
scalar RSUExampleScenario.node[4].appl 	meanClusterHeadUtility 	6.2613102238538
scalar RSUExampleScenario.node[4].appl 	NumberofCH 	0.16216216216216
scalar RSUExampleScenario.node[4].appl 	NumberofON 	0.81081081081081
scalar RSUExampleScenario.node[4].appl 	NumberofFN 	0.027027027027027
scalar RSUExampleScenario.node[4].veinsmobility 	startTime 	9.7
scalar RSUExampleScenario.node[4].veinsmobility 	totalTime 	440.3
scalar RSUExampleScenario.node[4].veinsmobility 	stopTime 	450
scalar RSUExampleScenario.node[4].veinsmobility 	minSpeed 	0
scalar RSUExampleScenario.node[4].veinsmobility 	maxSpeed 	13.999998932267
scalar RSUExampleScenario.node[4].veinsmobility 	totalDistance 	2948.1520965448
scalar RSUExampleScenario.node[4].veinsmobility 	totalCO2Emission 	795.90513826974
scalar RSUExampleScenario.node[40].appl 	meanClusterNodes 	9.5
scalar RSUExampleScenario.node[40].appl 	meanClusterHeadUtility 	17.378523782923
scalar RSUExampleScenario.node[40].appl 	NumberofCH 	0.054054054054054
scalar RSUExampleScenario.node[40].appl 	NumberofON 	0.86486486486486
scalar RSUExampleScenario.node[40].appl 	NumberofFN 	0.081081081081081
scalar RSUExampleScenario.node[40].veinsmobility 	startTime 	96.5
scalar RSUExampleScenario.node[40].veinsmobility 	totalTime 	353.5
scalar RSUExampleScenario.node[40].veinsmobility 	stopTime 	450
scalar RSUExampleScenario.node[40].veinsmobility 	minSpeed 	0
scalar RSUExampleScenario.node[40].veinsmobility 	maxSpeed 	13.999526269129
scalar RSUExampleScenario.node[40].veinsmobility 	totalDistance 	1762.4261047555
scalar RSUExampleScenario.node[40].veinsmobility 	totalCO2Emission 	586.48100593314
scalar RSUExampleScenario.node[41].appl 	meanClusterNodes 	1.25
scalar RSUExampleScenario.node[41].appl 	meanClusterHeadUtility 	9.048441880202
scalar RSUExampleScenario.node[41].appl 	NumberofCH 	0.10810810810811
scalar RSUExampleScenario.node[41].appl 	NumberofON 	0.86486486486486
scalar RSUExampleScenario.node[41].appl 	NumberofFN 	0.027027027027027
scalar RSUExampleScenario.node[41].veinsmobility 	startTime 	98.9
scalar RSUExampleScenario.node[41].veinsmobility 	totalTime 	351.1
scalar RSUExampleScenario.node[41].veinsmobility 	stopTime 	450
scalar RSUExampleScenario.node[41].veinsmobility 	minSpeed 	0
scalar RSUExampleScenario.node[41].veinsmobility 	maxSpeed 	13.999797824428
scalar RSUExampleScenario.node[41].veinsmobility 	totalDistance 	1727.8633681312
scalar RSUExampleScenario.node[41].veinsmobility 	totalCO2Emission 	580.16080816034
scalar RSUExampleScenario.node[42].appl 	meanClusterNodes 	2.5
scalar RSUExampleScenario.node[42].appl 	meanClusterHeadUtility 	8.5292111221813
scalar RSUExampleScenario.node[42].appl 	NumberofCH 	0.10810810810811
scalar RSUExampleScenario.node[42].appl 	NumberofON 	0.51351351351351
scalar RSUExampleScenario.node[42].appl 	NumberofFN 	0.37837837837838
scalar RSUExampleScenario.node[42].veinsmobility 	startTime 	101.3
scalar RSUExampleScenario.node[42].veinsmobility 	totalTime 	348.7
scalar RSUExampleScenario.node[42].veinsmobility 	stopTime 	450
scalar RSUExampleScenario.node[42].veinsmobility 	minSpeed 	0
scalar RSUExampleScenario.node[42].veinsmobility 	maxSpeed 	13.999900780097
scalar RSUExampleScenario.node[42].veinsmobility 	totalDistance 	1695.0966282582
scalar RSUExampleScenario.node[42].veinsmobility 	totalCO2Emission 	577.0680220634
scalar RSUExampleScenario.node[43].appl 	meanClusterNodes 	3
scalar RSUExampleScenario.node[43].appl 	meanClusterHeadUtility 	19.28317790604
scalar RSUExampleScenario.node[43].appl 	NumberofCH 	0.054054054054054
scalar RSUExampleScenario.node[43].appl 	NumberofON 	0.91891891891892
scalar RSUExampleScenario.node[43].appl 	NumberofFN 	0.027027027027027
scalar RSUExampleScenario.node[43].veinsmobility 	startTime 	103.7
scalar RSUExampleScenario.node[43].veinsmobility 	totalTime 	346.3
scalar RSUExampleScenario.node[43].veinsmobility 	stopTime 	450
scalar RSUExampleScenario.node[43].veinsmobility 	minSpeed 	0
scalar RSUExampleScenario.node[43].veinsmobility 	maxSpeed 	13.999987580683
scalar RSUExampleScenario.node[43].veinsmobility 	totalDistance 	1662.8882259684
scalar RSUExampleScenario.node[43].veinsmobility 	totalCO2Emission 	573.65900385525
scalar RSUExampleScenario.node[44].appl 	meanClusterNodes 	3.5
scalar RSUExampleScenario.node[44].appl 	meanClusterHeadUtility 	19.48049650121
scalar RSUExampleScenario.node[44].appl 	NumberofCH 	0.054054054054054
scalar RSUExampleScenario.node[44].appl 	NumberofON 	0.89189189189189
scalar RSUExampleScenario.node[44].appl 	NumberofFN 	0.054054054054054
scalar RSUExampleScenario.node[44].veinsmobility 	startTime 	106.1
scalar RSUExampleScenario.node[44].veinsmobility 	totalTime 	343.9
scalar RSUExampleScenario.node[44].veinsmobility 	stopTime 	450
scalar RSUExampleScenario.node[44].veinsmobility 	minSpeed 	0
scalar RSUExampleScenario.node[44].veinsmobility 	maxSpeed 	13.99985359228
scalar RSUExampleScenario.node[44].veinsmobility 	totalDistance 	1628.1805773234
scalar RSUExampleScenario.node[44].veinsmobility 	totalCO2Emission 	566.97634127002
scalar RSUExampleScenario.node[45].appl 	meanClusterNodes 	6.25
scalar RSUExampleScenario.node[45].appl 	meanClusterHeadUtility 	8.0817946380894
scalar RSUExampleScenario.node[45].appl 	NumberofCH 	0.10810810810811
scalar RSUExampleScenario.node[45].appl 	NumberofON 	0.45945945945946
scalar RSUExampleScenario.node[45].appl 	NumberofFN 	0.43243243243243
scalar RSUExampleScenario.node[45].veinsmobility 	startTime 	108.5
scalar RSUExampleScenario.node[45].veinsmobility 	totalTime 	341.5
scalar RSUExampleScenario.node[45].veinsmobility 	stopTime 	450
scalar RSUExampleScenario.node[45].veinsmobility 	minSpeed 	0
scalar RSUExampleScenario.node[45].veinsmobility 	maxSpeed 	13.999775498703
scalar RSUExampleScenario.node[45].veinsmobility 	totalDistance 	1595.1779182254
scalar RSUExampleScenario.node[45].veinsmobility 	totalCO2Emission 	559.26698422845
scalar RSUExampleScenario.node[46].appl 	meanClusterNodes 	2.75
scalar RSUExampleScenario.node[46].appl 	meanClusterHeadUtility 	8.6447510947779
scalar RSUExampleScenario.node[46].appl 	NumberofCH 	0.10810810810811
scalar RSUExampleScenario.node[46].appl 	NumberofON 	0.67567567567568
scalar RSUExampleScenario.node[46].appl 	NumberofFN 	0.21621621621622
scalar RSUExampleScenario.node[46].veinsmobility 	startTime 	110.9
scalar RSUExampleScenario.node[46].veinsmobility 	totalTime 	339.1
scalar RSUExampleScenario.node[46].veinsmobility 	stopTime 	450
scalar RSUExampleScenario.node[46].veinsmobility 	minSpeed 	0
scalar RSUExampleScenario.node[46].veinsmobility 	maxSpeed 	13.999823080548
scalar RSUExampleScenario.node[46].veinsmobility 	totalDistance 	1561.0990840586
scalar RSUExampleScenario.node[46].veinsmobility 	totalCO2Emission 	551.70969973134
scalar RSUExampleScenario.node[47].appl 	meanClusterNodes 	4
scalar RSUExampleScenario.node[47].appl 	meanClusterHeadUtility 	17.372001245007
scalar RSUExampleScenario.node[47].appl 	NumberofCH 	0.054054054054054
scalar RSUExampleScenario.node[47].appl 	NumberofON 	0.67567567567568
scalar RSUExampleScenario.node[47].appl 	NumberofFN 	0.27027027027027
scalar RSUExampleScenario.node[47].veinsmobility 	startTime 	113.3
scalar RSUExampleScenario.node[47].veinsmobility 	totalTime 	336.7
scalar RSUExampleScenario.node[47].veinsmobility 	stopTime 	450
scalar RSUExampleScenario.node[47].veinsmobility 	minSpeed 	0
scalar RSUExampleScenario.node[47].veinsmobility 	maxSpeed 	13.999928455325
scalar RSUExampleScenario.node[47].veinsmobility 	totalDistance 	1527.7203332896
scalar RSUExampleScenario.node[47].veinsmobility 	totalCO2Emission 	551.36582729724
scalar RSUExampleScenario.node[48].appl 	meanClusterNodes 	8
scalar RSUExampleScenario.node[48].appl 	meanClusterHeadUtility 	11.56376421483
scalar RSUExampleScenario.node[48].appl 	NumberofCH 	0.081081081081081
scalar RSUExampleScenario.node[48].appl 	NumberofON 	0.62162162162162
scalar RSUExampleScenario.node[48].appl 	NumberofFN 	0.2972972972973
scalar RSUExampleScenario.node[48].veinsmobility 	startTime 	115.7
scalar RSUExampleScenario.node[48].veinsmobility 	totalTime 	334.3
scalar RSUExampleScenario.node[48].veinsmobility 	stopTime 	450
scalar RSUExampleScenario.node[48].veinsmobility 	minSpeed 	0
scalar RSUExampleScenario.node[48].veinsmobility 	maxSpeed 	13.999993640031
scalar RSUExampleScenario.node[48].veinsmobility 	totalDistance 	1494.2763224095
scalar RSUExampleScenario.node[48].veinsmobility 	totalCO2Emission 	540.67609764839
scalar RSUExampleScenario.node[49].appl 	meanClusterNodes 	8.2
scalar RSUExampleScenario.node[49].appl 	meanClusterHeadUtility 	6.816537098291
scalar RSUExampleScenario.node[49].appl 	NumberofCH 	0.13513513513514
scalar RSUExampleScenario.node[49].appl 	NumberofON 	0.51351351351351
scalar RSUExampleScenario.node[49].appl 	NumberofFN 	0.35135135135135
scalar RSUExampleScenario.node[49].veinsmobility 	startTime 	118.1
scalar RSUExampleScenario.node[49].veinsmobility 	totalTime 	331.9
scalar RSUExampleScenario.node[49].veinsmobility 	stopTime 	450
scalar RSUExampleScenario.node[49].veinsmobility 	minSpeed 	0
scalar RSUExampleScenario.node[49].veinsmobility 	maxSpeed 	13.999836156378
scalar RSUExampleScenario.node[49].veinsmobility 	totalDistance 	1460.7160905475
scalar RSUExampleScenario.node[49].veinsmobility 	totalCO2Emission 	537.35998731288
scalar RSUExampleScenario.node[5].appl 	meanClusterNodes 	3.5
scalar RSUExampleScenario.node[5].appl 	meanClusterHeadUtility 	6.1415618363636
scalar RSUExampleScenario.node[5].appl 	NumberofCH 	0.16216216216216
scalar RSUExampleScenario.node[5].appl 	NumberofON 	0.2972972972973
scalar RSUExampleScenario.node[5].appl 	NumberofFN 	0.54054054054054
scalar RSUExampleScenario.node[5].veinsmobility 	startTime 	12.1
scalar RSUExampleScenario.node[5].veinsmobility 	totalTime 	437.9
scalar RSUExampleScenario.node[5].veinsmobility 	stopTime 	450
scalar RSUExampleScenario.node[5].veinsmobility 	minSpeed 	0
scalar RSUExampleScenario.node[5].veinsmobility 	maxSpeed 	13.999994226624
scalar RSUExampleScenario.node[5].veinsmobility 	totalDistance 	2913.2972414223
scalar RSUExampleScenario.node[5].veinsmobility 	totalCO2Emission 	783.22194336148
scalar RSUExampleScenario.node[50].appl 	meanClusterNodes 	3.25
scalar RSUExampleScenario.node[50].appl 	meanClusterHeadUtility 	8.4796548750014
scalar RSUExampleScenario.node[50].appl 	NumberofCH 	0.10810810810811
scalar RSUExampleScenario.node[50].appl 	NumberofON 	0.54054054054054
scalar RSUExampleScenario.node[50].appl 	NumberofFN 	0.35135135135135
scalar RSUExampleScenario.node[50].veinsmobility 	startTime 	120.6
scalar RSUExampleScenario.node[50].veinsmobility 	totalTime 	329.4
scalar RSUExampleScenario.node[50].veinsmobility 	stopTime 	450
scalar RSUExampleScenario.node[50].veinsmobility 	minSpeed 	0
scalar RSUExampleScenario.node[50].veinsmobility 	maxSpeed 	13.999479905327
scalar RSUExampleScenario.node[50].veinsmobility 	totalDistance 	1428.4598399313
scalar RSUExampleScenario.node[50].veinsmobility 	totalCO2Emission 	531.94033052577
scalar RSUExampleScenario.node[51].appl 	meanClusterNodes 	5
scalar RSUExampleScenario.node[51].appl 	meanClusterHeadUtility 	16.052816893626
scalar RSUExampleScenario.node[51].appl 	NumberofCH 	0.054054054054054
scalar RSUExampleScenario.node[51].appl 	NumberofON 	0.21621621621622
scalar RSUExampleScenario.node[51].appl 	NumberofFN 	0.72972972972973
scalar RSUExampleScenario.node[51].veinsmobility 	startTime 	123
scalar RSUExampleScenario.node[51].veinsmobility 	totalTime 	327
scalar RSUExampleScenario.node[51].veinsmobility 	stopTime 	450
scalar RSUExampleScenario.node[51].veinsmobility 	minSpeed 	0
scalar RSUExampleScenario.node[51].veinsmobility 	maxSpeed 	13.999762629785
scalar RSUExampleScenario.node[51].veinsmobility 	totalDistance 	1394.9929013483
scalar RSUExampleScenario.node[51].veinsmobility 	totalCO2Emission 	525.67502296531
scalar RSUExampleScenario.node[52].appl 	meanClusterNodes 	2
scalar RSUExampleScenario.node[52].appl 	meanClusterHeadUtility 	16.685704973212
scalar RSUExampleScenario.node[52].appl 	NumberofCH 	0.054054054054054
scalar RSUExampleScenario.node[52].appl 	NumberofON 	0.72972972972973
scalar RSUExampleScenario.node[52].appl 	NumberofFN 	0.21621621621622
scalar RSUExampleScenario.node[52].veinsmobility 	startTime 	125.4
scalar RSUExampleScenario.node[52].veinsmobility 	totalTime 	324.6
scalar RSUExampleScenario.node[52].veinsmobility 	stopTime 	450
scalar RSUExampleScenario.node[52].veinsmobility 	minSpeed 	0
scalar RSUExampleScenario.node[52].veinsmobility 	maxSpeed 	13.999928277591
scalar RSUExampleScenario.node[52].veinsmobility 	totalDistance 	1358.8101009554
scalar RSUExampleScenario.node[52].veinsmobility 	totalCO2Emission 	519.41262835386
scalar RSUExampleScenario.node[53].appl 	meanClusterNodes 	9
scalar RSUExampleScenario.node[53].appl 	meanClusterHeadUtility 	17.214053545729
scalar RSUExampleScenario.node[53].appl 	NumberofCH 	0.054054054054054
scalar RSUExampleScenario.node[53].appl 	NumberofON 	0.62162162162162
scalar RSUExampleScenario.node[53].appl 	NumberofFN 	0.32432432432432
scalar RSUExampleScenario.node[53].veinsmobility 	startTime 	127.8
scalar RSUExampleScenario.node[53].veinsmobility 	totalTime 	322.2
scalar RSUExampleScenario.node[53].veinsmobility 	stopTime 	450
scalar RSUExampleScenario.node[53].veinsmobility 	minSpeed 	0
scalar RSUExampleScenario.node[53].veinsmobility 	maxSpeed 	13.999733757428
scalar RSUExampleScenario.node[53].veinsmobility 	totalDistance 	1325.9938364602
scalar RSUExampleScenario.node[53].veinsmobility 	totalCO2Emission 	515.07473652486
scalar RSUExampleScenario.node[54].appl 	meanClusterNodes 	6.5
scalar RSUExampleScenario.node[54].appl 	meanClusterHeadUtility 	8.4590315529623
scalar RSUExampleScenario.node[54].appl 	NumberofCH 	0.10810810810811
scalar RSUExampleScenario.node[54].appl 	NumberofON 	0.64864864864865
scalar RSUExampleScenario.node[54].appl 	NumberofFN 	0.24324324324324
scalar RSUExampleScenario.node[54].veinsmobility 	startTime 	130.2
scalar RSUExampleScenario.node[54].veinsmobility 	totalTime 	319.8
scalar RSUExampleScenario.node[54].veinsmobility 	stopTime 	450
scalar RSUExampleScenario.node[54].veinsmobility 	minSpeed 	0
scalar RSUExampleScenario.node[54].veinsmobility 	maxSpeed 	13.999695314183
scalar RSUExampleScenario.node[54].veinsmobility 	totalDistance 	1292.1846066357
scalar RSUExampleScenario.node[54].veinsmobility 	totalCO2Emission 	504.0251979148
scalar RSUExampleScenario.node[55].appl 	meanClusterNodes 	6
scalar RSUExampleScenario.node[55].appl 	meanClusterHeadUtility 	16.220509371242
scalar RSUExampleScenario.node[55].appl 	NumberofCH 	0.054054054054054
scalar RSUExampleScenario.node[55].appl 	NumberofON 	0.67567567567568
scalar RSUExampleScenario.node[55].appl 	NumberofFN 	0.27027027027027
scalar RSUExampleScenario.node[55].veinsmobility 	startTime 	132.6
scalar RSUExampleScenario.node[55].veinsmobility 	totalTime 	317.4
scalar RSUExampleScenario.node[55].veinsmobility 	stopTime 	450
scalar RSUExampleScenario.node[55].veinsmobility 	minSpeed 	0
scalar RSUExampleScenario.node[55].veinsmobility 	maxSpeed 	13.999431517324
scalar RSUExampleScenario.node[55].veinsmobility 	totalDistance 	1259.9158048674
scalar RSUExampleScenario.node[55].veinsmobility 	totalCO2Emission 	501.11790306146
scalar RSUExampleScenario.node[56].appl 	meanClusterNodes 	5
scalar RSUExampleScenario.node[56].appl 	meanClusterHeadUtility 	8.1299134069679
scalar RSUExampleScenario.node[56].appl 	NumberofCH 	0.10810810810811
scalar RSUExampleScenario.node[56].appl 	NumberofON 	0.51351351351351
scalar RSUExampleScenario.node[56].appl 	NumberofFN 	0.37837837837838
scalar RSUExampleScenario.node[56].veinsmobility 	startTime 	135
scalar RSUExampleScenario.node[56].veinsmobility 	totalTime 	315
scalar RSUExampleScenario.node[56].veinsmobility 	stopTime 	450
scalar RSUExampleScenario.node[56].veinsmobility 	minSpeed 	0
scalar RSUExampleScenario.node[56].veinsmobility 	maxSpeed 	13.999983585158
scalar RSUExampleScenario.node[56].veinsmobility 	totalDistance 	1225.0580972111
scalar RSUExampleScenario.node[56].veinsmobility 	totalCO2Emission 	496.03435378649
scalar RSUExampleScenario.node[57].appl 	meanClusterNodes 	8
scalar RSUExampleScenario.node[57].appl 	meanClusterHeadUtility 	17.987810817058
scalar RSUExampleScenario.node[57].appl 	NumberofCH 	0.054054054054054
scalar RSUExampleScenario.node[57].appl 	NumberofON 	0.40540540540541
scalar RSUExampleScenario.node[57].appl 	NumberofFN 	0.54054054054054
scalar RSUExampleScenario.node[57].veinsmobility 	startTime 	137.4
scalar RSUExampleScenario.node[57].veinsmobility 	totalTime 	312.6
scalar RSUExampleScenario.node[57].veinsmobility 	stopTime 	450
scalar RSUExampleScenario.node[57].veinsmobility 	minSpeed 	0
scalar RSUExampleScenario.node[57].veinsmobility 	maxSpeed 	13.999993409903
scalar RSUExampleScenario.node[57].veinsmobility 	totalDistance 	1192.1131828938
scalar RSUExampleScenario.node[57].veinsmobility 	totalCO2Emission 	492.15982765661
scalar RSUExampleScenario.node[58].appl 	meanClusterNodes 	8
scalar RSUExampleScenario.node[58].appl 	meanClusterHeadUtility 	8.4297825190406
scalar RSUExampleScenario.node[58].appl 	NumberofCH 	0.10810810810811
scalar RSUExampleScenario.node[58].appl 	NumberofON 	0.62162162162162
scalar RSUExampleScenario.node[58].appl 	NumberofFN 	0.27027027027027
scalar RSUExampleScenario.node[58].veinsmobility 	startTime 	139.8
scalar RSUExampleScenario.node[58].veinsmobility 	totalTime 	310.2
scalar RSUExampleScenario.node[58].veinsmobility 	stopTime 	450
scalar RSUExampleScenario.node[58].veinsmobility 	minSpeed 	0
scalar RSUExampleScenario.node[58].veinsmobility 	maxSpeed 	13.999925179845
scalar RSUExampleScenario.node[58].veinsmobility 	totalDistance 	1158.6910132305
scalar RSUExampleScenario.node[58].veinsmobility 	totalCO2Emission 	485.03719070181
scalar RSUExampleScenario.node[59].appl 	meanClusterNodes 	5
scalar RSUExampleScenario.node[59].appl 	meanClusterHeadUtility 	16.266744012792
scalar RSUExampleScenario.node[59].appl 	NumberofCH 	0.054054054054054
scalar RSUExampleScenario.node[59].appl 	NumberofON 	0.32432432432432
scalar RSUExampleScenario.node[59].appl 	NumberofFN 	0.62162162162162
scalar RSUExampleScenario.node[59].veinsmobility 	startTime 	142.2
scalar RSUExampleScenario.node[59].veinsmobility 	totalTime 	307.8
scalar RSUExampleScenario.node[59].veinsmobility 	stopTime 	450
scalar RSUExampleScenario.node[59].veinsmobility 	minSpeed 	0
scalar RSUExampleScenario.node[59].veinsmobility 	maxSpeed 	13.999015448233
scalar RSUExampleScenario.node[59].veinsmobility 	totalDistance 	1124.9015552131
scalar RSUExampleScenario.node[59].veinsmobility 	totalCO2Emission 	477.1178166451
scalar RSUExampleScenario.node[6].appl 	meanClusterNodes 	2.5
scalar RSUExampleScenario.node[6].appl 	meanClusterHeadUtility 	9.8682238989437
scalar RSUExampleScenario.node[6].appl 	NumberofCH 	0.10810810810811
scalar RSUExampleScenario.node[6].appl 	NumberofON 	0.59459459459459
scalar RSUExampleScenario.node[6].appl 	NumberofFN 	0.2972972972973
scalar RSUExampleScenario.node[6].veinsmobility 	startTime 	14.5
scalar RSUExampleScenario.node[6].veinsmobility 	totalTime 	435.5
scalar RSUExampleScenario.node[6].veinsmobility 	stopTime 	450
scalar RSUExampleScenario.node[6].veinsmobility 	minSpeed 	0
scalar RSUExampleScenario.node[6].veinsmobility 	maxSpeed 	13.999987937391
scalar RSUExampleScenario.node[6].veinsmobility 	totalDistance 	2905.2846377685
scalar RSUExampleScenario.node[6].veinsmobility 	totalCO2Emission 	780.8781644245
scalar RSUExampleScenario.node[60].appl 	meanClusterNodes 	4.25
scalar RSUExampleScenario.node[60].appl 	meanClusterHeadUtility 	8.4956834557131
scalar RSUExampleScenario.node[60].appl 	NumberofCH 	0.10810810810811
scalar RSUExampleScenario.node[60].appl 	NumberofON 	0.78378378378378
scalar RSUExampleScenario.node[60].appl 	NumberofFN 	0.10810810810811
scalar RSUExampleScenario.node[60].veinsmobility 	startTime 	144.7
scalar RSUExampleScenario.node[60].veinsmobility 	totalTime 	305.3
scalar RSUExampleScenario.node[60].veinsmobility 	stopTime 	450
scalar RSUExampleScenario.node[60].veinsmobility 	minSpeed 	0
scalar RSUExampleScenario.node[60].veinsmobility 	maxSpeed 	13.999951835889
scalar RSUExampleScenario.node[60].veinsmobility 	totalDistance 	1091.7855356845
scalar RSUExampleScenario.node[60].veinsmobility 	totalCO2Emission 	474.07103727975
scalar RSUExampleScenario.node[61].appl 	meanClusterNodes 	1
scalar RSUExampleScenario.node[61].appl 	meanClusterHeadUtility 	17.108062497183
scalar RSUExampleScenario.node[61].appl 	NumberofCH 	0.054054054054054
scalar RSUExampleScenario.node[61].appl 	NumberofON 	0.62162162162162
scalar RSUExampleScenario.node[61].appl 	NumberofFN 	0.32432432432432
scalar RSUExampleScenario.node[61].veinsmobility 	startTime 	147.1
scalar RSUExampleScenario.node[61].veinsmobility 	totalTime 	302.9
scalar RSUExampleScenario.node[61].veinsmobility 	stopTime 	450
scalar RSUExampleScenario.node[61].veinsmobility 	minSpeed 	0
scalar RSUExampleScenario.node[61].veinsmobility 	maxSpeed 	13.999991695434
scalar RSUExampleScenario.node[61].veinsmobility 	totalDistance 	1057.2117819087
scalar RSUExampleScenario.node[61].veinsmobility 	totalCO2Emission 	468.85810154172
scalar RSUExampleScenario.node[62].appl 	meanClusterNodes 	7
scalar RSUExampleScenario.node[62].appl 	meanClusterHeadUtility 	8.301542910817
scalar RSUExampleScenario.node[62].appl 	NumberofCH 	0.10810810810811
scalar RSUExampleScenario.node[62].appl 	NumberofON 	0.21621621621622
scalar RSUExampleScenario.node[62].appl 	NumberofFN 	0.67567567567568
scalar RSUExampleScenario.node[62].veinsmobility 	startTime 	149.5
scalar RSUExampleScenario.node[62].veinsmobility 	totalTime 	300.5
scalar RSUExampleScenario.node[62].veinsmobility 	stopTime 	450
scalar RSUExampleScenario.node[62].veinsmobility 	minSpeed 	0
scalar RSUExampleScenario.node[62].veinsmobility 	maxSpeed 	13.999743425839
scalar RSUExampleScenario.node[62].veinsmobility 	totalDistance 	1024.3934365657
scalar RSUExampleScenario.node[62].veinsmobility 	totalCO2Emission 	463.09194500223
scalar RSUExampleScenario.node[63].appl 	meanClusterNodes 	7.75
scalar RSUExampleScenario.node[63].appl 	meanClusterHeadUtility 	8.6408634642571
scalar RSUExampleScenario.node[63].appl 	NumberofCH 	0.10810810810811
scalar RSUExampleScenario.node[63].appl 	NumberofON 	0.51351351351351
scalar RSUExampleScenario.node[63].appl 	NumberofFN 	0.37837837837838
scalar RSUExampleScenario.node[63].veinsmobility 	startTime 	151.9
scalar RSUExampleScenario.node[63].veinsmobility 	totalTime 	298.1
scalar RSUExampleScenario.node[63].veinsmobility 	stopTime 	450
scalar RSUExampleScenario.node[63].veinsmobility 	minSpeed 	0
scalar RSUExampleScenario.node[63].veinsmobility 	maxSpeed 	13.999720523115
scalar RSUExampleScenario.node[63].veinsmobility 	totalDistance 	985.12525946232
scalar RSUExampleScenario.node[63].veinsmobility 	totalCO2Emission 	449.48267828558
scalar RSUExampleScenario.node[64].appl 	meanClusterNodes 	0
scalar RSUExampleScenario.node[64].appl 	meanClusterHeadUtility 	0
scalar RSUExampleScenario.node[64].appl 	NumberofCH 	0.054054054054054
scalar RSUExampleScenario.node[64].appl 	NumberofON 	0
scalar RSUExampleScenario.node[64].appl 	NumberofFN 	0.94594594594595
scalar RSUExampleScenario.node[64].veinsmobility 	startTime 	154.3
scalar RSUExampleScenario.node[64].veinsmobility 	totalTime 	295.7
scalar RSUExampleScenario.node[64].veinsmobility 	stopTime 	450
scalar RSUExampleScenario.node[64].veinsmobility 	minSpeed 	0
scalar RSUExampleScenario.node[64].veinsmobility 	maxSpeed 	13.99849227461
scalar RSUExampleScenario.node[64].veinsmobility 	totalDistance 	953.8144408139
scalar RSUExampleScenario.node[64].veinsmobility 	totalCO2Emission 	437.0358218913
scalar RSUExampleScenario.node[65].appl 	meanClusterNodes 	2.6
scalar RSUExampleScenario.node[65].appl 	meanClusterHeadUtility 	6.4962890819689
scalar RSUExampleScenario.node[65].appl 	NumberofCH 	0.13513513513514
scalar RSUExampleScenario.node[65].appl 	NumberofON 	0.56756756756757
scalar RSUExampleScenario.node[65].appl 	NumberofFN 	0.2972972972973
scalar RSUExampleScenario.node[65].veinsmobility 	startTime 	156.7
scalar RSUExampleScenario.node[65].veinsmobility 	totalTime 	293.3
scalar RSUExampleScenario.node[65].veinsmobility 	stopTime 	450
scalar RSUExampleScenario.node[65].veinsmobility 	minSpeed 	0
scalar RSUExampleScenario.node[65].veinsmobility 	maxSpeed 	13.999818734126
scalar RSUExampleScenario.node[65].veinsmobility 	totalDistance 	940.31578524873
scalar RSUExampleScenario.node[65].veinsmobility 	totalCO2Emission 	427.40559782942
scalar RSUExampleScenario.node[66].appl 	meanClusterNodes 	2
scalar RSUExampleScenario.node[66].appl 	meanClusterHeadUtility 	9.2098860417938
scalar RSUExampleScenario.node[66].appl 	NumberofCH 	0.10810810810811
scalar RSUExampleScenario.node[66].appl 	NumberofON 	0.7027027027027
scalar RSUExampleScenario.node[66].appl 	NumberofFN 	0.18918918918919
scalar RSUExampleScenario.node[66].veinsmobility 	startTime 	159.1
scalar RSUExampleScenario.node[66].veinsmobility 	totalTime 	290.9
scalar RSUExampleScenario.node[66].veinsmobility 	stopTime 	450
scalar RSUExampleScenario.node[66].veinsmobility 	minSpeed 	0
scalar RSUExampleScenario.node[66].veinsmobility 	maxSpeed 	13.999686900168
scalar RSUExampleScenario.node[66].veinsmobility 	totalDistance 	928.18536850661
scalar RSUExampleScenario.node[66].veinsmobility 	totalCO2Emission 	423.52454982581
scalar RSUExampleScenario.node[67].appl 	meanClusterNodes 	5
scalar RSUExampleScenario.node[67].appl 	meanClusterHeadUtility 	10.226493380267
scalar RSUExampleScenario.node[67].appl 	NumberofCH 	0.10810810810811
scalar RSUExampleScenario.node[67].appl 	NumberofON 	0.59459459459459
scalar RSUExampleScenario.node[67].appl 	NumberofFN 	0.2972972972973
scalar RSUExampleScenario.node[67].veinsmobility 	startTime 	161.5
scalar RSUExampleScenario.node[67].veinsmobility 	totalTime 	288.5
scalar RSUExampleScenario.node[67].veinsmobility 	stopTime 	450
scalar RSUExampleScenario.node[67].veinsmobility 	minSpeed 	0
scalar RSUExampleScenario.node[67].veinsmobility 	maxSpeed 	13.999122620868
scalar RSUExampleScenario.node[67].veinsmobility 	totalDistance 	912.79817250038
scalar RSUExampleScenario.node[67].veinsmobility 	totalCO2Emission 	423.11188772596
scalar RSUExampleScenario.node[68].appl 	meanClusterNodes 	2.75
scalar RSUExampleScenario.node[68].appl 	meanClusterHeadUtility 	8.7220195646798
scalar RSUExampleScenario.node[68].appl 	NumberofCH 	0.10810810810811
scalar RSUExampleScenario.node[68].appl 	NumberofON 	0.27027027027027
scalar RSUExampleScenario.node[68].appl 	NumberofFN 	0.62162162162162
scalar RSUExampleScenario.node[68].veinsmobility 	startTime 	163.9
scalar RSUExampleScenario.node[68].veinsmobility 	totalTime 	286.1
scalar RSUExampleScenario.node[68].veinsmobility 	stopTime 	450
scalar RSUExampleScenario.node[68].veinsmobility 	minSpeed 	0
scalar RSUExampleScenario.node[68].veinsmobility 	maxSpeed 	13.999777057474
scalar RSUExampleScenario.node[68].veinsmobility 	totalDistance 	893.54889224388
scalar RSUExampleScenario.node[68].veinsmobility 	totalCO2Emission 	419.2087499022
scalar RSUExampleScenario.node[69].appl 	meanClusterNodes 	6.5
scalar RSUExampleScenario.node[69].appl 	meanClusterHeadUtility 	17.770666741686
scalar RSUExampleScenario.node[69].appl 	NumberofCH 	0.054054054054054
scalar RSUExampleScenario.node[69].appl 	NumberofON 	0.7027027027027
scalar RSUExampleScenario.node[69].appl 	NumberofFN 	0.24324324324324
scalar RSUExampleScenario.node[69].veinsmobility 	startTime 	166.3
scalar RSUExampleScenario.node[69].veinsmobility 	totalTime 	283.7
scalar RSUExampleScenario.node[69].veinsmobility 	stopTime 	450
scalar RSUExampleScenario.node[69].veinsmobility 	minSpeed 	0
scalar RSUExampleScenario.node[69].veinsmobility 	maxSpeed 	13.999810444876
scalar RSUExampleScenario.node[69].veinsmobility 	totalDistance 	860.3495311882
scalar RSUExampleScenario.node[69].veinsmobility 	totalCO2Emission 	414.44241396778
scalar RSUExampleScenario.node[7].appl 	meanClusterNodes 	1.3333333333333
scalar RSUExampleScenario.node[7].appl 	meanClusterHeadUtility 	5.7031507569504
scalar RSUExampleScenario.node[7].appl 	NumberofCH 	0.16216216216216
scalar RSUExampleScenario.node[7].appl 	NumberofON 	0.67567567567568
scalar RSUExampleScenario.node[7].appl 	NumberofFN 	0.16216216216216
scalar RSUExampleScenario.node[7].veinsmobility 	startTime 	16.9
scalar RSUExampleScenario.node[7].veinsmobility 	totalTime 	433.1
scalar RSUExampleScenario.node[7].veinsmobility 	stopTime 	450
scalar RSUExampleScenario.node[7].veinsmobility 	minSpeed 	0
scalar RSUExampleScenario.node[7].veinsmobility 	maxSpeed 	13.999922965923
scalar RSUExampleScenario.node[7].veinsmobility 	totalDistance 	2884.8246874399
scalar RSUExampleScenario.node[7].veinsmobility 	totalCO2Emission 	776.45412937798
scalar RSUExampleScenario.node[70].appl 	meanClusterNodes 	1.6666666666667
scalar RSUExampleScenario.node[70].appl 	meanClusterHeadUtility 	6.1755241321558
scalar RSUExampleScenario.node[70].appl 	NumberofCH 	0.16216216216216
scalar RSUExampleScenario.node[70].appl 	NumberofON 	0.72972972972973
scalar RSUExampleScenario.node[70].appl 	NumberofFN 	0.10810810810811
scalar RSUExampleScenario.node[70].veinsmobility 	startTime 	168.8
scalar RSUExampleScenario.node[70].veinsmobility 	totalTime 	281.2
scalar RSUExampleScenario.node[70].veinsmobility 	stopTime 	450
scalar RSUExampleScenario.node[70].veinsmobility 	minSpeed 	0
scalar RSUExampleScenario.node[70].veinsmobility 	maxSpeed 	13.999413672108
scalar RSUExampleScenario.node[70].veinsmobility 	totalDistance 	826.92438594556
scalar RSUExampleScenario.node[70].veinsmobility 	totalCO2Emission 	408.96431682388
scalar RSUExampleScenario.node[71].appl 	meanClusterNodes 	4.5
scalar RSUExampleScenario.node[71].appl 	meanClusterHeadUtility 	9.2253927654826
scalar RSUExampleScenario.node[71].appl 	NumberofCH 	0.10810810810811
scalar RSUExampleScenario.node[71].appl 	NumberofON 	0.64864864864865
scalar RSUExampleScenario.node[71].appl 	NumberofFN 	0.24324324324324
scalar RSUExampleScenario.node[71].veinsmobility 	startTime 	171.2
scalar RSUExampleScenario.node[71].veinsmobility 	totalTime 	278.8
scalar RSUExampleScenario.node[71].veinsmobility 	stopTime 	450
scalar RSUExampleScenario.node[71].veinsmobility 	minSpeed 	0
scalar RSUExampleScenario.node[71].veinsmobility 	maxSpeed 	13.999242142234
scalar RSUExampleScenario.node[71].veinsmobility 	totalDistance 	791.15889325955
scalar RSUExampleScenario.node[71].veinsmobility 	totalCO2Emission 	404.01317752716
scalar RSUExampleScenario.node[72].appl 	meanClusterNodes 	3
scalar RSUExampleScenario.node[72].appl 	meanClusterHeadUtility 	17.234479983662
scalar RSUExampleScenario.node[72].appl 	NumberofCH 	0.054054054054054
scalar RSUExampleScenario.node[72].appl 	NumberofON 	0.40540540540541
scalar RSUExampleScenario.node[72].appl 	NumberofFN 	0.54054054054054
scalar RSUExampleScenario.node[72].veinsmobility 	startTime 	173.6
scalar RSUExampleScenario.node[72].veinsmobility 	totalTime 	276.4
scalar RSUExampleScenario.node[72].veinsmobility 	stopTime 	450
scalar RSUExampleScenario.node[72].veinsmobility 	minSpeed 	0
scalar RSUExampleScenario.node[72].veinsmobility 	maxSpeed 	13.999035626233
scalar RSUExampleScenario.node[72].veinsmobility 	totalDistance 	758.7825945462
scalar RSUExampleScenario.node[72].veinsmobility 	totalCO2Emission 	394.59826636072
scalar RSUExampleScenario.node[73].appl 	meanClusterNodes 	4.5
scalar RSUExampleScenario.node[73].appl 	meanClusterHeadUtility 	15.97836549168
scalar RSUExampleScenario.node[73].appl 	NumberofCH 	0.054054054054054
scalar RSUExampleScenario.node[73].appl 	NumberofON 	0.72972972972973
scalar RSUExampleScenario.node[73].appl 	NumberofFN 	0.21621621621622
scalar RSUExampleScenario.node[73].veinsmobility 	startTime 	176
scalar RSUExampleScenario.node[73].veinsmobility 	totalTime 	274
scalar RSUExampleScenario.node[73].veinsmobility 	stopTime 	450
scalar RSUExampleScenario.node[73].veinsmobility 	minSpeed 	0
scalar RSUExampleScenario.node[73].veinsmobility 	maxSpeed 	13.999141265885
scalar RSUExampleScenario.node[73].veinsmobility 	totalDistance 	724.93131391618
scalar RSUExampleScenario.node[73].veinsmobility 	totalCO2Emission 	389.06628007843
scalar RSUExampleScenario.node[74].appl 	meanClusterNodes 	6.5
scalar RSUExampleScenario.node[74].appl 	meanClusterHeadUtility 	8.7549467377251
scalar RSUExampleScenario.node[74].appl 	NumberofCH 	0.10810810810811
scalar RSUExampleScenario.node[74].appl 	NumberofON 	0.51351351351351
scalar RSUExampleScenario.node[74].appl 	NumberofFN 	0.37837837837838
scalar RSUExampleScenario.node[74].veinsmobility 	startTime 	178.4
scalar RSUExampleScenario.node[74].veinsmobility 	totalTime 	271.6
scalar RSUExampleScenario.node[74].veinsmobility 	stopTime 	450
scalar RSUExampleScenario.node[74].veinsmobility 	minSpeed 	0
scalar RSUExampleScenario.node[74].veinsmobility 	maxSpeed 	13.998209835216
scalar RSUExampleScenario.node[74].veinsmobility 	totalDistance 	691.21116942785
scalar RSUExampleScenario.node[74].veinsmobility 	totalCO2Emission 	385.6453565899
scalar RSUExampleScenario.node[75].appl 	meanClusterNodes 	4
scalar RSUExampleScenario.node[75].appl 	meanClusterHeadUtility 	11.117313082048
scalar RSUExampleScenario.node[75].appl 	NumberofCH 	0.081081081081081
scalar RSUExampleScenario.node[75].appl 	NumberofON 	0.32432432432432
scalar RSUExampleScenario.node[75].appl 	NumberofFN 	0.59459459459459
scalar RSUExampleScenario.node[75].veinsmobility 	startTime 	180.8
scalar RSUExampleScenario.node[75].veinsmobility 	totalTime 	269.2
scalar RSUExampleScenario.node[75].veinsmobility 	stopTime 	450
scalar RSUExampleScenario.node[75].veinsmobility 	minSpeed 	0
scalar RSUExampleScenario.node[75].veinsmobility 	maxSpeed 	13.999974703412
scalar RSUExampleScenario.node[75].veinsmobility 	totalDistance 	658.06183391812
scalar RSUExampleScenario.node[75].veinsmobility 	totalCO2Emission 	381.37080435877
scalar RSUExampleScenario.node[76].appl 	meanClusterNodes 	7.5
scalar RSUExampleScenario.node[76].appl 	meanClusterHeadUtility 	17.66610067748
scalar RSUExampleScenario.node[76].appl 	NumberofCH 	0.054054054054054
scalar RSUExampleScenario.node[76].appl 	NumberofON 	0.54054054054054
scalar RSUExampleScenario.node[76].appl 	NumberofFN 	0.40540540540541
scalar RSUExampleScenario.node[76].veinsmobility 	startTime 	183.2
scalar RSUExampleScenario.node[76].veinsmobility 	totalTime 	266.8
scalar RSUExampleScenario.node[76].veinsmobility 	stopTime 	450
scalar RSUExampleScenario.node[76].veinsmobility 	minSpeed 	0
scalar RSUExampleScenario.node[76].veinsmobility 	maxSpeed 	13.999879035789
scalar RSUExampleScenario.node[76].veinsmobility 	totalDistance 	624.23007409892
scalar RSUExampleScenario.node[76].veinsmobility 	totalCO2Emission 	373.52210511429
scalar RSUExampleScenario.node[77].appl 	meanClusterNodes 	7.75
scalar RSUExampleScenario.node[77].appl 	meanClusterHeadUtility 	8.4825492412476
scalar RSUExampleScenario.node[77].appl 	NumberofCH 	0.10810810810811
scalar RSUExampleScenario.node[77].appl 	NumberofON 	0.59459459459459
scalar RSUExampleScenario.node[77].appl 	NumberofFN 	0.2972972972973
scalar RSUExampleScenario.node[77].veinsmobility 	startTime 	185.6
scalar RSUExampleScenario.node[77].veinsmobility 	totalTime 	264.4
scalar RSUExampleScenario.node[77].veinsmobility 	stopTime 	450
scalar RSUExampleScenario.node[77].veinsmobility 	minSpeed 	0
scalar RSUExampleScenario.node[77].veinsmobility 	maxSpeed 	13.999599621347
scalar RSUExampleScenario.node[77].veinsmobility 	totalDistance 	588.75736064391
scalar RSUExampleScenario.node[77].veinsmobility 	totalCO2Emission 	369.20909443334
scalar RSUExampleScenario.node[78].appl 	meanClusterNodes 	1.5
scalar RSUExampleScenario.node[78].appl 	meanClusterHeadUtility 	15.972074027339
scalar RSUExampleScenario.node[78].appl 	NumberofCH 	0.054054054054054
scalar RSUExampleScenario.node[78].appl 	NumberofON 	0.62162162162162
scalar RSUExampleScenario.node[78].appl 	NumberofFN 	0.32432432432432
scalar RSUExampleScenario.node[78].veinsmobility 	startTime 	188
scalar RSUExampleScenario.node[78].veinsmobility 	totalTime 	262
scalar RSUExampleScenario.node[78].veinsmobility 	stopTime 	450
scalar RSUExampleScenario.node[78].veinsmobility 	minSpeed 	0
scalar RSUExampleScenario.node[78].veinsmobility 	maxSpeed 	13.999998708405
scalar RSUExampleScenario.node[78].veinsmobility 	totalDistance 	556.06975240104
scalar RSUExampleScenario.node[78].veinsmobility 	totalCO2Emission 	361.7549085769
scalar RSUExampleScenario.node[79].appl 	meanClusterNodes 	3
scalar RSUExampleScenario.node[79].appl 	meanClusterHeadUtility 	8.2630856013583
scalar RSUExampleScenario.node[79].appl 	NumberofCH 	0.10810810810811
scalar RSUExampleScenario.node[79].appl 	NumberofON 	0.59459459459459
scalar RSUExampleScenario.node[79].appl 	NumberofFN 	0.2972972972973
scalar RSUExampleScenario.node[79].veinsmobility 	startTime 	190.4
scalar RSUExampleScenario.node[79].veinsmobility 	totalTime 	259.6
scalar RSUExampleScenario.node[79].veinsmobility 	stopTime 	450
scalar RSUExampleScenario.node[79].veinsmobility 	minSpeed 	0
scalar RSUExampleScenario.node[79].veinsmobility 	maxSpeed 	13.999256972335
scalar RSUExampleScenario.node[79].veinsmobility 	totalDistance 	522.40090219129
scalar RSUExampleScenario.node[79].veinsmobility 	totalCO2Emission 	356.7266806844
scalar RSUExampleScenario.node[8].appl 	meanClusterNodes 	2.5
scalar RSUExampleScenario.node[8].appl 	meanClusterHeadUtility 	9.6200653229024
scalar RSUExampleScenario.node[8].appl 	NumberofCH 	0.10810810810811
scalar RSUExampleScenario.node[8].appl 	NumberofON 	0.35135135135135
scalar RSUExampleScenario.node[8].appl 	NumberofFN 	0.54054054054054
scalar RSUExampleScenario.node[8].veinsmobility 	startTime 	19.3
scalar RSUExampleScenario.node[8].veinsmobility 	totalTime 	430.7
scalar RSUExampleScenario.node[8].veinsmobility 	stopTime 	450
scalar RSUExampleScenario.node[8].veinsmobility 	minSpeed 	0
scalar RSUExampleScenario.node[8].veinsmobility 	maxSpeed 	13.999858438638
scalar RSUExampleScenario.node[8].veinsmobility 	totalDistance 	2862.6956392571
scalar RSUExampleScenario.node[8].veinsmobility 	totalCO2Emission 	775.72756851667
scalar RSUExampleScenario.node[80].appl 	meanClusterNodes 	0.33333333333333
scalar RSUExampleScenario.node[80].appl 	meanClusterHeadUtility 	10.536546723971
scalar RSUExampleScenario.node[80].appl 	NumberofCH 	0.081081081081081
scalar RSUExampleScenario.node[80].appl 	NumberofON 	0.45945945945946
scalar RSUExampleScenario.node[80].appl 	NumberofFN 	0.45945945945946
scalar RSUExampleScenario.node[80].veinsmobility 	startTime 	192.9
scalar RSUExampleScenario.node[80].veinsmobility 	totalTime 	257.1
scalar RSUExampleScenario.node[80].veinsmobility 	stopTime 	450
scalar RSUExampleScenario.node[80].veinsmobility 	minSpeed 	0
scalar RSUExampleScenario.node[80].veinsmobility 	maxSpeed 	13.996790783789
scalar RSUExampleScenario.node[80].veinsmobility 	totalDistance 	488.48515122102
scalar RSUExampleScenario.node[80].veinsmobility 	totalCO2Emission 	349.63430600504
scalar RSUExampleScenario.node[81].appl 	meanClusterNodes 	4
scalar RSUExampleScenario.node[81].appl 	meanClusterHeadUtility 	17.402937560717
scalar RSUExampleScenario.node[81].appl 	NumberofCH 	0.054054054054054
scalar RSUExampleScenario.node[81].appl 	NumberofON 	0.43243243243243
scalar RSUExampleScenario.node[81].appl 	NumberofFN 	0.51351351351351
scalar RSUExampleScenario.node[81].veinsmobility 	startTime 	195.3
scalar RSUExampleScenario.node[81].veinsmobility 	totalTime 	254.7
scalar RSUExampleScenario.node[81].veinsmobility 	stopTime 	450
scalar RSUExampleScenario.node[81].veinsmobility 	minSpeed 	0
scalar RSUExampleScenario.node[81].veinsmobility 	maxSpeed 	13.999231549983
scalar RSUExampleScenario.node[81].veinsmobility 	totalDistance 	455.8633009521
scalar RSUExampleScenario.node[81].veinsmobility 	totalCO2Emission 	344.51589383304
scalar RSUExampleScenario.node[82].appl 	meanClusterNodes 	6
scalar RSUExampleScenario.node[82].appl 	meanClusterHeadUtility 	18.412655442894
scalar RSUExampleScenario.node[82].appl 	NumberofCH 	0.054054054054054
scalar RSUExampleScenario.node[82].appl 	NumberofON 	0.59459459459459
scalar RSUExampleScenario.node[82].appl 	NumberofFN 	0.35135135135135
scalar RSUExampleScenario.node[82].veinsmobility 	startTime 	197.7
scalar RSUExampleScenario.node[82].veinsmobility 	totalTime 	252.3
scalar RSUExampleScenario.node[82].veinsmobility 	stopTime 	450
scalar RSUExampleScenario.node[82].veinsmobility 	minSpeed 	0
scalar RSUExampleScenario.node[82].veinsmobility 	maxSpeed 	13.997738200251
scalar RSUExampleScenario.node[82].veinsmobility 	totalDistance 	422.11274340568
scalar RSUExampleScenario.node[82].veinsmobility 	totalCO2Emission 	339.56149278728
scalar RSUExampleScenario.node[83].appl 	meanClusterNodes 	5
scalar RSUExampleScenario.node[83].appl 	meanClusterHeadUtility 	11.330935614102
scalar RSUExampleScenario.node[83].appl 	NumberofCH 	0.081081081081081
scalar RSUExampleScenario.node[83].appl 	NumberofON 	0.56756756756757
scalar RSUExampleScenario.node[83].appl 	NumberofFN 	0.35135135135135
scalar RSUExampleScenario.node[83].veinsmobility 	startTime 	200.1
scalar RSUExampleScenario.node[83].veinsmobility 	totalTime 	249.9
scalar RSUExampleScenario.node[83].veinsmobility 	stopTime 	450
scalar RSUExampleScenario.node[83].veinsmobility 	minSpeed 	0
scalar RSUExampleScenario.node[83].veinsmobility 	maxSpeed 	13.999117351545
scalar RSUExampleScenario.node[83].veinsmobility 	totalDistance 	388.64751498118
scalar RSUExampleScenario.node[83].veinsmobility 	totalCO2Emission 	333.90596224511
scalar RSUExampleScenario.node[84].appl 	meanClusterNodes 	6
scalar RSUExampleScenario.node[84].appl 	meanClusterHeadUtility 	6.7983220794332
scalar RSUExampleScenario.node[84].appl 	NumberofCH 	0.13513513513514
scalar RSUExampleScenario.node[84].appl 	NumberofON 	0.56756756756757
scalar RSUExampleScenario.node[84].appl 	NumberofFN 	0.2972972972973
scalar RSUExampleScenario.node[84].veinsmobility 	startTime 	202.5
scalar RSUExampleScenario.node[84].veinsmobility 	totalTime 	247.5
scalar RSUExampleScenario.node[84].veinsmobility 	stopTime 	450
scalar RSUExampleScenario.node[84].veinsmobility 	minSpeed 	0
scalar RSUExampleScenario.node[84].veinsmobility 	maxSpeed 	13.999716510216
scalar RSUExampleScenario.node[84].veinsmobility 	totalDistance 	355.4158120237
scalar RSUExampleScenario.node[84].veinsmobility 	totalCO2Emission 	327.53320580954
scalar RSUExampleScenario.node[85].appl 	meanClusterNodes 	3
scalar RSUExampleScenario.node[85].appl 	meanClusterHeadUtility 	9.1492483540444
scalar RSUExampleScenario.node[85].appl 	NumberofCH 	0.10810810810811
scalar RSUExampleScenario.node[85].appl 	NumberofON 	0.7027027027027
scalar RSUExampleScenario.node[85].appl 	NumberofFN 	0.18918918918919
scalar RSUExampleScenario.node[85].veinsmobility 	startTime 	204.9
scalar RSUExampleScenario.node[85].veinsmobility 	totalTime 	245.1
scalar RSUExampleScenario.node[85].veinsmobility 	stopTime 	450
scalar RSUExampleScenario.node[85].veinsmobility 	minSpeed 	0
scalar RSUExampleScenario.node[85].veinsmobility 	maxSpeed 	13.99738726998
scalar RSUExampleScenario.node[85].veinsmobility 	totalDistance 	322.42582441875
scalar RSUExampleScenario.node[85].veinsmobility 	totalCO2Emission 	322.27539888852
scalar RSUExampleScenario.node[86].appl 	meanClusterNodes 	6
scalar RSUExampleScenario.node[86].appl 	meanClusterHeadUtility 	7.9526583297694
scalar RSUExampleScenario.node[86].appl 	NumberofCH 	0.10810810810811
scalar RSUExampleScenario.node[86].appl 	NumberofON 	0.24324324324324
scalar RSUExampleScenario.node[86].appl 	NumberofFN 	0.64864864864865
scalar RSUExampleScenario.node[86].veinsmobility 	startTime 	207.3
scalar RSUExampleScenario.node[86].veinsmobility 	totalTime 	242.7
scalar RSUExampleScenario.node[86].veinsmobility 	stopTime 	450
scalar RSUExampleScenario.node[86].veinsmobility 	minSpeed 	0
scalar RSUExampleScenario.node[86].veinsmobility 	maxSpeed 	13.760393438446
scalar RSUExampleScenario.node[86].veinsmobility 	totalDistance 	286.87115390515
scalar RSUExampleScenario.node[86].veinsmobility 	totalCO2Emission 	315.1411119346
scalar RSUExampleScenario.node[87].appl 	meanClusterNodes 	4.3333333333333
scalar RSUExampleScenario.node[87].appl 	meanClusterHeadUtility 	11.765963975686
scalar RSUExampleScenario.node[87].appl 	NumberofCH 	0.081081081081081
scalar RSUExampleScenario.node[87].appl 	NumberofON 	0.64864864864865
scalar RSUExampleScenario.node[87].appl 	NumberofFN 	0.27027027027027
scalar RSUExampleScenario.node[87].veinsmobility 	startTime 	209.7
scalar RSUExampleScenario.node[87].veinsmobility 	totalTime 	240.3
scalar RSUExampleScenario.node[87].veinsmobility 	stopTime 	450
scalar RSUExampleScenario.node[87].veinsmobility 	minSpeed 	0
scalar RSUExampleScenario.node[87].veinsmobility 	maxSpeed 	13.81077939766
scalar RSUExampleScenario.node[87].veinsmobility 	totalDistance 	248.88097652322
scalar RSUExampleScenario.node[87].veinsmobility 	totalCO2Emission 	298.6586719976
scalar RSUExampleScenario.node[88].appl 	meanClusterNodes 	6
scalar RSUExampleScenario.node[88].appl 	meanClusterHeadUtility 	16.432443595622
scalar RSUExampleScenario.node[88].appl 	NumberofCH 	0.054054054054054
scalar RSUExampleScenario.node[88].appl 	NumberofON 	0.67567567567568
scalar RSUExampleScenario.node[88].appl 	NumberofFN 	0.27027027027027
scalar RSUExampleScenario.node[88].veinsmobility 	startTime 	212.1
scalar RSUExampleScenario.node[88].veinsmobility 	totalTime 	237.9
scalar RSUExampleScenario.node[88].veinsmobility 	stopTime 	450
scalar RSUExampleScenario.node[88].veinsmobility 	minSpeed 	0
scalar RSUExampleScenario.node[88].veinsmobility 	maxSpeed 	13.855042060812
scalar RSUExampleScenario.node[88].veinsmobility 	totalDistance 	226.04859940481
scalar RSUExampleScenario.node[88].veinsmobility 	totalCO2Emission 	287.3566474447
scalar RSUExampleScenario.node[89].appl 	meanClusterNodes 	7.5
scalar RSUExampleScenario.node[89].appl 	meanClusterHeadUtility 	19.155618746304
scalar RSUExampleScenario.node[89].appl 	NumberofCH 	0.054054054054054
scalar RSUExampleScenario.node[89].appl 	NumberofON 	0.56756756756757
scalar RSUExampleScenario.node[89].appl 	NumberofFN 	0.37837837837838
scalar RSUExampleScenario.node[89].veinsmobility 	startTime 	214.5
scalar RSUExampleScenario.node[89].veinsmobility 	totalTime 	235.5
scalar RSUExampleScenario.node[89].veinsmobility 	stopTime 	450
scalar RSUExampleScenario.node[89].veinsmobility 	minSpeed 	0
scalar RSUExampleScenario.node[89].veinsmobility 	maxSpeed 	13.860151509633
scalar RSUExampleScenario.node[89].veinsmobility 	totalDistance 	215.36617373943
scalar RSUExampleScenario.node[89].veinsmobility 	totalCO2Emission 	282.9218807398
scalar RSUExampleScenario.node[9].appl 	meanClusterNodes 	1.8
scalar RSUExampleScenario.node[9].appl 	meanClusterHeadUtility 	7.3173389969443
scalar RSUExampleScenario.node[9].appl 	NumberofCH 	0.13513513513514
scalar RSUExampleScenario.node[9].appl 	NumberofON 	0.56756756756757
scalar RSUExampleScenario.node[9].appl 	NumberofFN 	0.2972972972973
scalar RSUExampleScenario.node[9].veinsmobility 	startTime 	21.7
scalar RSUExampleScenario.node[9].veinsmobility 	totalTime 	428.3
scalar RSUExampleScenario.node[9].veinsmobility 	stopTime 	450
scalar RSUExampleScenario.node[9].veinsmobility 	minSpeed 	0
scalar RSUExampleScenario.node[9].veinsmobility 	maxSpeed 	13.999861382018
scalar RSUExampleScenario.node[9].veinsmobility 	totalDistance 	2826.6272405876
scalar RSUExampleScenario.node[9].veinsmobility 	totalCO2Emission 	767.59410331378
scalar RSUExampleScenario.node[90].appl 	meanClusterNodes 	9
scalar RSUExampleScenario.node[90].appl 	meanClusterHeadUtility 	9.0422906236821
scalar RSUExampleScenario.node[90].appl 	NumberofCH 	0.10810810810811
scalar RSUExampleScenario.node[90].appl 	NumberofON 	0.40540540540541
scalar RSUExampleScenario.node[90].appl 	NumberofFN 	0.48648648648649
scalar RSUExampleScenario.node[90].veinsmobility 	startTime 	217
scalar RSUExampleScenario.node[90].veinsmobility 	totalTime 	233
scalar RSUExampleScenario.node[90].veinsmobility 	stopTime 	450
scalar RSUExampleScenario.node[90].veinsmobility 	minSpeed 	0
scalar RSUExampleScenario.node[90].veinsmobility 	maxSpeed 	13.83436611712
scalar RSUExampleScenario.node[90].veinsmobility 	totalDistance 	202.57368355932
scalar RSUExampleScenario.node[90].veinsmobility 	totalCO2Emission 	280.1248470924
scalar RSUExampleScenario.node[91].appl 	meanClusterNodes 	5
scalar RSUExampleScenario.node[91].appl 	meanClusterHeadUtility 	9.3896529302418
scalar RSUExampleScenario.node[91].appl 	NumberofCH 	0.10810810810811
scalar RSUExampleScenario.node[91].appl 	NumberofON 	0.54054054054054
scalar RSUExampleScenario.node[91].appl 	NumberofFN 	0.35135135135135
scalar RSUExampleScenario.node[91].veinsmobility 	startTime 	219.4
scalar RSUExampleScenario.node[91].veinsmobility 	totalTime 	230.6
scalar RSUExampleScenario.node[91].veinsmobility 	stopTime 	450
scalar RSUExampleScenario.node[91].veinsmobility 	minSpeed 	0
scalar RSUExampleScenario.node[91].veinsmobility 	maxSpeed 	13.772606875717
scalar RSUExampleScenario.node[91].veinsmobility 	totalDistance 	185.32042929215
scalar RSUExampleScenario.node[91].veinsmobility 	totalCO2Emission 	277.64391537979
scalar RSUExampleScenario.node[92].appl 	meanClusterNodes 	4
scalar RSUExampleScenario.node[92].appl 	meanClusterHeadUtility 	9.4820585790118
scalar RSUExampleScenario.node[92].appl 	NumberofCH 	0.10810810810811
scalar RSUExampleScenario.node[92].appl 	NumberofON 	0.56756756756757
scalar RSUExampleScenario.node[92].appl 	NumberofFN 	0.32432432432432
scalar RSUExampleScenario.node[92].veinsmobility 	startTime 	221.8
scalar RSUExampleScenario.node[92].veinsmobility 	totalTime 	228.2
scalar RSUExampleScenario.node[92].veinsmobility 	stopTime 	450
scalar RSUExampleScenario.node[92].veinsmobility 	minSpeed 	0
scalar RSUExampleScenario.node[92].veinsmobility 	maxSpeed 	13.860684298517
scalar RSUExampleScenario.node[92].veinsmobility 	totalDistance 	151.47186196635
scalar RSUExampleScenario.node[92].veinsmobility 	totalCO2Emission 	264.75740234423
scalar RSUExampleScenario.node[93].appl 	meanClusterNodes 	3.5
scalar RSUExampleScenario.node[93].appl 	meanClusterHeadUtility 	8.7056372488952
scalar RSUExampleScenario.node[93].appl 	NumberofCH 	0.10810810810811
scalar RSUExampleScenario.node[93].appl 	NumberofON 	0.51351351351351
scalar RSUExampleScenario.node[93].appl 	NumberofFN 	0.37837837837838
scalar RSUExampleScenario.node[93].veinsmobility 	startTime 	224.2
scalar RSUExampleScenario.node[93].veinsmobility 	totalTime 	225.8
scalar RSUExampleScenario.node[93].veinsmobility 	stopTime 	450
scalar RSUExampleScenario.node[93].veinsmobility 	minSpeed 	0
scalar RSUExampleScenario.node[93].veinsmobility 	maxSpeed 	13.867001255665
scalar RSUExampleScenario.node[93].veinsmobility 	totalDistance 	123.74840992717
scalar RSUExampleScenario.node[93].veinsmobility 	totalCO2Emission 	251.60642686299
scalar RSUExampleScenario.node[94].appl 	meanClusterNodes 	4
scalar RSUExampleScenario.node[94].appl 	meanClusterHeadUtility 	18.561060850273
scalar RSUExampleScenario.node[94].appl 	NumberofCH 	0.054054054054054
scalar RSUExampleScenario.node[94].appl 	NumberofON 	0.37837837837838
scalar RSUExampleScenario.node[94].appl 	NumberofFN 	0.56756756756757
scalar RSUExampleScenario.node[94].veinsmobility 	startTime 	226.6
scalar RSUExampleScenario.node[94].veinsmobility 	totalTime 	223.4
scalar RSUExampleScenario.node[94].veinsmobility 	stopTime 	450
scalar RSUExampleScenario.node[94].veinsmobility 	minSpeed 	0
scalar RSUExampleScenario.node[94].veinsmobility 	maxSpeed 	13.813226407715
scalar RSUExampleScenario.node[94].veinsmobility 	totalDistance 	112.30118517351
scalar RSUExampleScenario.node[94].veinsmobility 	totalCO2Emission 	245.7614243694
scalar RSUExampleScenario.node[95].appl 	meanClusterNodes 	2.5
scalar RSUExampleScenario.node[95].appl 	meanClusterHeadUtility 	9.4469035860628
scalar RSUExampleScenario.node[95].appl 	NumberofCH 	0.10810810810811
scalar RSUExampleScenario.node[95].appl 	NumberofON 	0.35135135135135
scalar RSUExampleScenario.node[95].appl 	NumberofFN 	0.54054054054054
scalar RSUExampleScenario.node[95].veinsmobility 	startTime 	229
scalar RSUExampleScenario.node[95].veinsmobility 	totalTime 	221
scalar RSUExampleScenario.node[95].veinsmobility 	stopTime 	450
scalar RSUExampleScenario.node[95].veinsmobility 	minSpeed 	0
scalar RSUExampleScenario.node[95].veinsmobility 	maxSpeed 	13.821808433777
scalar RSUExampleScenario.node[95].veinsmobility 	totalDistance 	99.415162132372
scalar RSUExampleScenario.node[95].veinsmobility 	totalCO2Emission 	242.24455372898
scalar RSUExampleScenario.node[96].appl 	meanClusterNodes 	4.75
scalar RSUExampleScenario.node[96].appl 	meanClusterHeadUtility 	8.9052873613036
scalar RSUExampleScenario.node[96].appl 	NumberofCH 	0.10810810810811
scalar RSUExampleScenario.node[96].appl 	NumberofON 	0.24324324324324
scalar RSUExampleScenario.node[96].appl 	NumberofFN 	0.64864864864865
scalar RSUExampleScenario.node[96].veinsmobility 	startTime 	231.4
scalar RSUExampleScenario.node[96].veinsmobility 	totalTime 	218.6
scalar RSUExampleScenario.node[96].veinsmobility 	stopTime 	450
scalar RSUExampleScenario.node[96].veinsmobility 	minSpeed 	0
scalar RSUExampleScenario.node[96].veinsmobility 	maxSpeed 	13.774115373062
scalar RSUExampleScenario.node[96].veinsmobility 	totalDistance 	83.295557543635
scalar RSUExampleScenario.node[96].veinsmobility 	totalCO2Emission 	239.76957263271
scalar RSUExampleScenario.node[97].appl 	meanClusterNodes 	4.25
scalar RSUExampleScenario.node[97].appl 	meanClusterHeadUtility 	8.5709892229255
scalar RSUExampleScenario.node[97].appl 	NumberofCH 	0.10810810810811
scalar RSUExampleScenario.node[97].appl 	NumberofON 	0.62162162162162
scalar RSUExampleScenario.node[97].appl 	NumberofFN 	0.27027027027027
scalar RSUExampleScenario.node[97].veinsmobility 	startTime 	233.8
scalar RSUExampleScenario.node[97].veinsmobility 	totalTime 	216.2
scalar RSUExampleScenario.node[97].veinsmobility 	stopTime 	450
scalar RSUExampleScenario.node[97].veinsmobility 	minSpeed 	0
scalar RSUExampleScenario.node[97].veinsmobility 	maxSpeed 	12.230943056272
scalar RSUExampleScenario.node[97].veinsmobility 	totalDistance 	54.487048317349
scalar RSUExampleScenario.node[97].veinsmobility 	totalCO2Emission 	231.53192072669
scalar RSUExampleScenario.node[98].appl 	meanClusterNodes 	6.75
scalar RSUExampleScenario.node[98].appl 	meanClusterHeadUtility 	8.8787357411675
scalar RSUExampleScenario.node[98].appl 	NumberofCH 	0.10810810810811
scalar RSUExampleScenario.node[98].appl 	NumberofON 	0.45945945945946
scalar RSUExampleScenario.node[98].appl 	NumberofFN 	0.43243243243243
scalar RSUExampleScenario.node[98].veinsmobility 	startTime 	236.2
scalar RSUExampleScenario.node[98].veinsmobility 	totalTime 	213.8
scalar RSUExampleScenario.node[98].veinsmobility 	stopTime 	450
scalar RSUExampleScenario.node[98].veinsmobility 	minSpeed 	0
scalar RSUExampleScenario.node[98].veinsmobility 	maxSpeed 	7.9250809707776
scalar RSUExampleScenario.node[98].veinsmobility 	totalDistance 	22.455108715824
scalar RSUExampleScenario.node[98].veinsmobility 	totalCO2Emission 	217.00614778084
scalar RSUExampleScenario.node[99].appl 	meanClusterNodes 	6
scalar RSUExampleScenario.node[99].appl 	meanClusterHeadUtility 	10.687975863348
scalar RSUExampleScenario.node[99].appl 	NumberofCH 	0.081081081081081
scalar RSUExampleScenario.node[99].appl 	NumberofON 	0.24324324324324
scalar RSUExampleScenario.node[99].appl 	NumberofFN 	0.67567567567568
scalar RSUExampleScenario.node[99].veinsmobility 	startTime 	238.6
scalar RSUExampleScenario.node[99].veinsmobility 	totalTime 	211.4
scalar RSUExampleScenario.node[99].veinsmobility 	stopTime 	450
scalar RSUExampleScenario.node[99].veinsmobility 	minSpeed 	0
scalar RSUExampleScenario.node[99].veinsmobility 	maxSpeed 	2.9863413221975
scalar RSUExampleScenario.node[99].veinsmobility 	totalDistance 	3.1869490938873
scalar RSUExampleScenario.node[99].veinsmobility 	totalCO2Emission 	207.024028059
