version 2
run statistic3-1683-20150325-11:51:54-22656
attr c 25
attr configname statistic3
attr datetime 20150325-11:51:54
attr experiment statistic3
attr inifile omnetpp.ini
attr iterationvars "$p=1/10, $c=25"
attr iterationvars2 "$p=1/10, $c=25, $repetition=83"
attr measurement "$p=1/10, $c=25"
attr network RSUExampleScenario
attr p 1/10
attr processid 22656
attr repetition 83
attr replication #83
attr resultdir results
attr runnumber 1683
attr seedset 1683

scalar . 	c 	25
scalar RSUExampleScenario.rsu[0].appl 	NumberofCH 	14
scalar RSUExampleScenario.rsu[0].appl 	NumberofON 	86
scalar RSUExampleScenario.rsu[0].appl 	NumberofFN 	0
scalar RSUExampleScenario.rsu[0].appl 	meanClusterNodes 	6.1428571428571
scalar RSUExampleScenario.rsu[0].appl 	varClusterNodes 	3.7005239562825
scalar RSUExampleScenario.rsu[0].appl 	sumCHutility 	540.05145664042
scalar RSUExampleScenario.rsu[0].appl 	meanCHutility 	38.575104045744
scalar RSUExampleScenario.rsu[0].appl 	varCHutility 	1.5208788190355
scalar RSUExampleScenario.rsu[0].appl 	sumDiffCHutility 	-63.100270052335
scalar RSUExampleScenario.rsu[0].appl 	meanDiffCHutility 	-4.5071621465954
scalar RSUExampleScenario.rsu[0].appl 	varDiffCHutility 	1.8128786806234
scalar RSUExampleScenario.rsu[0].appl 	expectedCHutility 	476.95118658808
scalar RSUExampleScenario.rsu[0].appl 	meanExpectedCHutility 	34.067941899149
scalar RSUExampleScenario.rsu[0].appl 	varExpectedCHutility 	0.82969515590463
scalar RSUExampleScenario.node[0].veinsmobility 	startTime 	0.1
scalar RSUExampleScenario.node[0].veinsmobility 	totalTime 	349.9
scalar RSUExampleScenario.node[0].veinsmobility 	stopTime 	350
scalar RSUExampleScenario.node[0].veinsmobility 	minSpeed 	0
scalar RSUExampleScenario.node[0].veinsmobility 	maxSpeed 	13.999989763186
scalar RSUExampleScenario.node[0].veinsmobility 	totalDistance 	3134.4217939447
scalar RSUExampleScenario.node[0].veinsmobility 	totalCO2Emission 	739.73621479154
scalar RSUExampleScenario.node[1].veinsmobility 	startTime 	2.5
scalar RSUExampleScenario.node[1].veinsmobility 	totalTime 	347.5
scalar RSUExampleScenario.node[1].veinsmobility 	stopTime 	350
scalar RSUExampleScenario.node[1].veinsmobility 	minSpeed 	0
scalar RSUExampleScenario.node[1].veinsmobility 	maxSpeed 	13.999931870371
scalar RSUExampleScenario.node[1].veinsmobility 	totalDistance 	3083.0526569034
scalar RSUExampleScenario.node[1].veinsmobility 	totalCO2Emission 	731.93220146494
scalar RSUExampleScenario.node[10].veinsmobility 	startTime 	24.2
scalar RSUExampleScenario.node[10].veinsmobility 	totalTime 	325.8
scalar RSUExampleScenario.node[10].veinsmobility 	stopTime 	350
scalar RSUExampleScenario.node[10].veinsmobility 	minSpeed 	0
scalar RSUExampleScenario.node[10].veinsmobility 	maxSpeed 	13.999950799302
scalar RSUExampleScenario.node[10].veinsmobility 	totalDistance 	2787.9062914843
scalar RSUExampleScenario.node[10].veinsmobility 	totalCO2Emission 	663.35991892901
scalar RSUExampleScenario.node[11].veinsmobility 	startTime 	26.6
scalar RSUExampleScenario.node[11].veinsmobility 	totalTime 	323.4
scalar RSUExampleScenario.node[11].veinsmobility 	stopTime 	350
scalar RSUExampleScenario.node[11].veinsmobility 	minSpeed 	0
scalar RSUExampleScenario.node[11].veinsmobility 	maxSpeed 	13.999700738296
scalar RSUExampleScenario.node[11].veinsmobility 	totalDistance 	2758.2751196785
scalar RSUExampleScenario.node[11].veinsmobility 	totalCO2Emission 	656.00602854235
scalar RSUExampleScenario.node[12].veinsmobility 	startTime 	29
scalar RSUExampleScenario.node[12].veinsmobility 	totalTime 	321
scalar RSUExampleScenario.node[12].veinsmobility 	stopTime 	350
scalar RSUExampleScenario.node[12].veinsmobility 	minSpeed 	0
scalar RSUExampleScenario.node[12].veinsmobility 	maxSpeed 	13.999974137007
scalar RSUExampleScenario.node[12].veinsmobility 	totalDistance 	2718.8992430902
scalar RSUExampleScenario.node[12].veinsmobility 	totalCO2Emission 	647.58847845647
scalar RSUExampleScenario.node[13].veinsmobility 	startTime 	31.4
scalar RSUExampleScenario.node[13].veinsmobility 	totalTime 	318.6
scalar RSUExampleScenario.node[13].veinsmobility 	stopTime 	350
scalar RSUExampleScenario.node[13].veinsmobility 	minSpeed 	0
scalar RSUExampleScenario.node[13].veinsmobility 	maxSpeed 	13.999961187213
scalar RSUExampleScenario.node[13].veinsmobility 	totalDistance 	2684.9874789603
scalar RSUExampleScenario.node[13].veinsmobility 	totalCO2Emission 	644.48254850914
scalar RSUExampleScenario.node[14].veinsmobility 	startTime 	33.8
scalar RSUExampleScenario.node[14].veinsmobility 	totalTime 	316.2
scalar RSUExampleScenario.node[14].veinsmobility 	stopTime 	350
scalar RSUExampleScenario.node[14].veinsmobility 	minSpeed 	0
scalar RSUExampleScenario.node[14].veinsmobility 	maxSpeed 	13.999935289714
scalar RSUExampleScenario.node[14].veinsmobility 	totalDistance 	2649.5166666527
scalar RSUExampleScenario.node[14].veinsmobility 	totalCO2Emission 	640.28500218615
scalar RSUExampleScenario.node[15].veinsmobility 	startTime 	36.2
scalar RSUExampleScenario.node[15].veinsmobility 	totalTime 	313.8
scalar RSUExampleScenario.node[15].veinsmobility 	stopTime 	350
scalar RSUExampleScenario.node[15].veinsmobility 	minSpeed 	0
scalar RSUExampleScenario.node[15].veinsmobility 	maxSpeed 	13.99982151981
scalar RSUExampleScenario.node[15].veinsmobility 	totalDistance 	2619.5556608871
scalar RSUExampleScenario.node[15].veinsmobility 	totalCO2Emission 	628.24376757755
scalar RSUExampleScenario.node[16].veinsmobility 	startTime 	38.6
scalar RSUExampleScenario.node[16].veinsmobility 	totalTime 	311.4
scalar RSUExampleScenario.node[16].veinsmobility 	stopTime 	350
scalar RSUExampleScenario.node[16].veinsmobility 	minSpeed 	0
scalar RSUExampleScenario.node[16].veinsmobility 	maxSpeed 	13.999926642273
scalar RSUExampleScenario.node[16].veinsmobility 	totalDistance 	2580.2077243735
scalar RSUExampleScenario.node[16].veinsmobility 	totalCO2Emission 	627.70682517926
scalar RSUExampleScenario.node[17].veinsmobility 	startTime 	41
scalar RSUExampleScenario.node[17].veinsmobility 	totalTime 	309
scalar RSUExampleScenario.node[17].veinsmobility 	stopTime 	350
scalar RSUExampleScenario.node[17].veinsmobility 	minSpeed 	0
scalar RSUExampleScenario.node[17].veinsmobility 	maxSpeed 	13.999789341432
scalar RSUExampleScenario.node[17].veinsmobility 	totalDistance 	2543.9457596403
scalar RSUExampleScenario.node[17].veinsmobility 	totalCO2Emission 	618.18428277893
scalar RSUExampleScenario.node[18].veinsmobility 	startTime 	43.4
scalar RSUExampleScenario.node[18].veinsmobility 	totalTime 	306.6
scalar RSUExampleScenario.node[18].veinsmobility 	stopTime 	350
scalar RSUExampleScenario.node[18].veinsmobility 	minSpeed 	0
scalar RSUExampleScenario.node[18].veinsmobility 	maxSpeed 	13.999817481516
scalar RSUExampleScenario.node[18].veinsmobility 	totalDistance 	2506.4668166337
scalar RSUExampleScenario.node[18].veinsmobility 	totalCO2Emission 	616.14474466176
scalar RSUExampleScenario.node[19].veinsmobility 	startTime 	45.8
scalar RSUExampleScenario.node[19].veinsmobility 	totalTime 	304.2
scalar RSUExampleScenario.node[19].veinsmobility 	stopTime 	350
scalar RSUExampleScenario.node[19].veinsmobility 	minSpeed 	0
scalar RSUExampleScenario.node[19].veinsmobility 	maxSpeed 	13.999638970967
scalar RSUExampleScenario.node[19].veinsmobility 	totalDistance 	2475.5524412046
scalar RSUExampleScenario.node[19].veinsmobility 	totalCO2Emission 	611.96042116128
scalar RSUExampleScenario.node[2].veinsmobility 	startTime 	4.9
scalar RSUExampleScenario.node[2].veinsmobility 	totalTime 	345.1
scalar RSUExampleScenario.node[2].veinsmobility 	stopTime 	350
scalar RSUExampleScenario.node[2].veinsmobility 	minSpeed 	0
scalar RSUExampleScenario.node[2].veinsmobility 	maxSpeed 	13.999906699031
scalar RSUExampleScenario.node[2].veinsmobility 	totalDistance 	3036.2621539127
scalar RSUExampleScenario.node[2].veinsmobility 	totalCO2Emission 	720.6403839121
scalar RSUExampleScenario.node[20].veinsmobility 	startTime 	48.3
scalar RSUExampleScenario.node[20].veinsmobility 	totalTime 	301.7
scalar RSUExampleScenario.node[20].veinsmobility 	stopTime 	350
scalar RSUExampleScenario.node[20].veinsmobility 	minSpeed 	0
scalar RSUExampleScenario.node[20].veinsmobility 	maxSpeed 	13.999885034268
scalar RSUExampleScenario.node[20].veinsmobility 	totalDistance 	2435.2809037096
scalar RSUExampleScenario.node[20].veinsmobility 	totalCO2Emission 	602.19256431691
scalar RSUExampleScenario.node[21].veinsmobility 	startTime 	50.7
scalar RSUExampleScenario.node[21].veinsmobility 	totalTime 	299.3
scalar RSUExampleScenario.node[21].veinsmobility 	stopTime 	350
scalar RSUExampleScenario.node[21].veinsmobility 	minSpeed 	0
scalar RSUExampleScenario.node[21].veinsmobility 	maxSpeed 	13.999967921991
scalar RSUExampleScenario.node[21].veinsmobility 	totalDistance 	2406.8134171494
scalar RSUExampleScenario.node[21].veinsmobility 	totalCO2Emission 	598.00264626
scalar RSUExampleScenario.node[22].veinsmobility 	startTime 	53.1
scalar RSUExampleScenario.node[22].veinsmobility 	totalTime 	296.9
scalar RSUExampleScenario.node[22].veinsmobility 	stopTime 	350
scalar RSUExampleScenario.node[22].veinsmobility 	minSpeed 	0
scalar RSUExampleScenario.node[22].veinsmobility 	maxSpeed 	13.999932314614
scalar RSUExampleScenario.node[22].veinsmobility 	totalDistance 	2369.8826827294
scalar RSUExampleScenario.node[22].veinsmobility 	totalCO2Emission 	594.24387854785
scalar RSUExampleScenario.node[23].veinsmobility 	startTime 	55.5
scalar RSUExampleScenario.node[23].veinsmobility 	totalTime 	294.5
scalar RSUExampleScenario.node[23].veinsmobility 	stopTime 	350
scalar RSUExampleScenario.node[23].veinsmobility 	minSpeed 	0
scalar RSUExampleScenario.node[23].veinsmobility 	maxSpeed 	13.999945489692
scalar RSUExampleScenario.node[23].veinsmobility 	totalDistance 	2340.3028016428
scalar RSUExampleScenario.node[23].veinsmobility 	totalCO2Emission 	582.26502503591
scalar RSUExampleScenario.node[24].veinsmobility 	startTime 	57.9
scalar RSUExampleScenario.node[24].veinsmobility 	totalTime 	292.1
scalar RSUExampleScenario.node[24].veinsmobility 	stopTime 	350
scalar RSUExampleScenario.node[24].veinsmobility 	minSpeed 	0
scalar RSUExampleScenario.node[24].veinsmobility 	maxSpeed 	13.999980142508
scalar RSUExampleScenario.node[24].veinsmobility 	totalDistance 	2302.8293164815
scalar RSUExampleScenario.node[24].veinsmobility 	totalCO2Emission 	578.92477775853
scalar RSUExampleScenario.node[25].veinsmobility 	startTime 	60.3
scalar RSUExampleScenario.node[25].veinsmobility 	totalTime 	289.7
scalar RSUExampleScenario.node[25].veinsmobility 	stopTime 	350
scalar RSUExampleScenario.node[25].veinsmobility 	minSpeed 	0
scalar RSUExampleScenario.node[25].veinsmobility 	maxSpeed 	13.999896760175
scalar RSUExampleScenario.node[25].veinsmobility 	totalDistance 	2270.5685814663
scalar RSUExampleScenario.node[25].veinsmobility 	totalCO2Emission 	574.04902497718
scalar RSUExampleScenario.node[26].veinsmobility 	startTime 	62.7
scalar RSUExampleScenario.node[26].veinsmobility 	totalTime 	287.3
scalar RSUExampleScenario.node[26].veinsmobility 	stopTime 	350
scalar RSUExampleScenario.node[26].veinsmobility 	minSpeed 	0
scalar RSUExampleScenario.node[26].veinsmobility 	maxSpeed 	13.999936535272
scalar RSUExampleScenario.node[26].veinsmobility 	totalDistance 	2233.1370068306
scalar RSUExampleScenario.node[26].veinsmobility 	totalCO2Emission 	570.81982176668
scalar RSUExampleScenario.node[27].veinsmobility 	startTime 	65.1
scalar RSUExampleScenario.node[27].veinsmobility 	totalTime 	284.9
scalar RSUExampleScenario.node[27].veinsmobility 	stopTime 	350
scalar RSUExampleScenario.node[27].veinsmobility 	minSpeed 	0
scalar RSUExampleScenario.node[27].veinsmobility 	maxSpeed 	13.999910519365
scalar RSUExampleScenario.node[27].veinsmobility 	totalDistance 	2202.3589466836
scalar RSUExampleScenario.node[27].veinsmobility 	totalCO2Emission 	562.18818838122
scalar RSUExampleScenario.node[28].veinsmobility 	startTime 	67.5
scalar RSUExampleScenario.node[28].veinsmobility 	totalTime 	282.5
scalar RSUExampleScenario.node[28].veinsmobility 	stopTime 	350
scalar RSUExampleScenario.node[28].veinsmobility 	minSpeed 	0
scalar RSUExampleScenario.node[28].veinsmobility 	maxSpeed 	13.999983445986
scalar RSUExampleScenario.node[28].veinsmobility 	totalDistance 	2164.4309580905
scalar RSUExampleScenario.node[28].veinsmobility 	totalCO2Emission 	557.48168801693
scalar RSUExampleScenario.node[29].veinsmobility 	startTime 	69.9
scalar RSUExampleScenario.node[29].veinsmobility 	totalTime 	280.1
scalar RSUExampleScenario.node[29].veinsmobility 	stopTime 	350
scalar RSUExampleScenario.node[29].veinsmobility 	minSpeed 	0
scalar RSUExampleScenario.node[29].veinsmobility 	maxSpeed 	13.999965545167
scalar RSUExampleScenario.node[29].veinsmobility 	totalDistance 	2134.2728723274
scalar RSUExampleScenario.node[29].veinsmobility 	totalCO2Emission 	552.80101152309
scalar RSUExampleScenario.node[3].veinsmobility 	startTime 	7.3
scalar RSUExampleScenario.node[3].veinsmobility 	totalTime 	342.7
scalar RSUExampleScenario.node[3].veinsmobility 	stopTime 	350
scalar RSUExampleScenario.node[3].veinsmobility 	minSpeed 	0
scalar RSUExampleScenario.node[3].veinsmobility 	maxSpeed 	13.99992131199
scalar RSUExampleScenario.node[3].veinsmobility 	totalDistance 	2995.6876282582
scalar RSUExampleScenario.node[3].veinsmobility 	totalCO2Emission 	717.78196357431
scalar RSUExampleScenario.node[30].veinsmobility 	startTime 	72.4
scalar RSUExampleScenario.node[30].veinsmobility 	totalTime 	277.6
scalar RSUExampleScenario.node[30].veinsmobility 	stopTime 	350
scalar RSUExampleScenario.node[30].veinsmobility 	minSpeed 	0
scalar RSUExampleScenario.node[30].veinsmobility 	maxSpeed 	13.999891197647
scalar RSUExampleScenario.node[30].veinsmobility 	totalDistance 	2098.4542605615
scalar RSUExampleScenario.node[30].veinsmobility 	totalCO2Emission 	547.09757831458
scalar RSUExampleScenario.node[31].veinsmobility 	startTime 	74.8
scalar RSUExampleScenario.node[31].veinsmobility 	totalTime 	275.2
scalar RSUExampleScenario.node[31].veinsmobility 	stopTime 	350
scalar RSUExampleScenario.node[31].veinsmobility 	minSpeed 	0
scalar RSUExampleScenario.node[31].veinsmobility 	maxSpeed 	13.999868996232
scalar RSUExampleScenario.node[31].veinsmobility 	totalDistance 	2067.10266406
scalar RSUExampleScenario.node[31].veinsmobility 	totalCO2Emission 	541.1618762696
scalar RSUExampleScenario.node[32].veinsmobility 	startTime 	77.2
scalar RSUExampleScenario.node[32].veinsmobility 	totalTime 	272.8
scalar RSUExampleScenario.node[32].veinsmobility 	stopTime 	350
scalar RSUExampleScenario.node[32].veinsmobility 	minSpeed 	0
scalar RSUExampleScenario.node[32].veinsmobility 	maxSpeed 	13.999911952978
scalar RSUExampleScenario.node[32].veinsmobility 	totalDistance 	2031.4177585724
scalar RSUExampleScenario.node[32].veinsmobility 	totalCO2Emission 	532.55736258005
scalar RSUExampleScenario.node[33].veinsmobility 	startTime 	79.6
scalar RSUExampleScenario.node[33].veinsmobility 	totalTime 	270.4
scalar RSUExampleScenario.node[33].veinsmobility 	stopTime 	350
scalar RSUExampleScenario.node[33].veinsmobility 	minSpeed 	0
scalar RSUExampleScenario.node[33].veinsmobility 	maxSpeed 	13.999918679462
scalar RSUExampleScenario.node[33].veinsmobility 	totalDistance 	1998.9696562029
scalar RSUExampleScenario.node[33].veinsmobility 	totalCO2Emission 	531.01657053446
scalar RSUExampleScenario.node[34].veinsmobility 	startTime 	82
scalar RSUExampleScenario.node[34].veinsmobility 	totalTime 	268
scalar RSUExampleScenario.node[34].veinsmobility 	stopTime 	350
scalar RSUExampleScenario.node[34].veinsmobility 	minSpeed 	0
scalar RSUExampleScenario.node[34].veinsmobility 	maxSpeed 	13.999975494132
scalar RSUExampleScenario.node[34].veinsmobility 	totalDistance 	1964.7532916674
scalar RSUExampleScenario.node[34].veinsmobility 	totalCO2Emission 	521.57868238416
scalar RSUExampleScenario.node[35].veinsmobility 	startTime 	84.4
scalar RSUExampleScenario.node[35].veinsmobility 	totalTime 	265.6
scalar RSUExampleScenario.node[35].veinsmobility 	stopTime 	350
scalar RSUExampleScenario.node[35].veinsmobility 	minSpeed 	0
scalar RSUExampleScenario.node[35].veinsmobility 	maxSpeed 	13.999816211683
scalar RSUExampleScenario.node[35].veinsmobility 	totalDistance 	1931.7302721926
scalar RSUExampleScenario.node[35].veinsmobility 	totalCO2Emission 	516.75205162917
scalar RSUExampleScenario.node[36].veinsmobility 	startTime 	86.8
scalar RSUExampleScenario.node[36].veinsmobility 	totalTime 	263.2
scalar RSUExampleScenario.node[36].veinsmobility 	stopTime 	350
scalar RSUExampleScenario.node[36].veinsmobility 	minSpeed 	0
scalar RSUExampleScenario.node[36].veinsmobility 	maxSpeed 	13.999940173514
scalar RSUExampleScenario.node[36].veinsmobility 	totalDistance 	1897.5691356218
scalar RSUExampleScenario.node[36].veinsmobility 	totalCO2Emission 	512.62030363452
scalar RSUExampleScenario.node[37].veinsmobility 	startTime 	89.2
scalar RSUExampleScenario.node[37].veinsmobility 	totalTime 	260.8
scalar RSUExampleScenario.node[37].veinsmobility 	stopTime 	350
scalar RSUExampleScenario.node[37].veinsmobility 	minSpeed 	0
scalar RSUExampleScenario.node[37].veinsmobility 	maxSpeed 	13.999968493027
scalar RSUExampleScenario.node[37].veinsmobility 	totalDistance 	1864.8538321054
scalar RSUExampleScenario.node[37].veinsmobility 	totalCO2Emission 	507.94383756974
scalar RSUExampleScenario.node[38].veinsmobility 	startTime 	91.6
scalar RSUExampleScenario.node[38].veinsmobility 	totalTime 	258.4
scalar RSUExampleScenario.node[38].veinsmobility 	stopTime 	350
scalar RSUExampleScenario.node[38].veinsmobility 	minSpeed 	0
scalar RSUExampleScenario.node[38].veinsmobility 	maxSpeed 	13.999908311982
scalar RSUExampleScenario.node[38].veinsmobility 	totalDistance 	1830.686420598
scalar RSUExampleScenario.node[38].veinsmobility 	totalCO2Emission 	500.74509664111
scalar RSUExampleScenario.node[39].veinsmobility 	startTime 	94
scalar RSUExampleScenario.node[39].veinsmobility 	totalTime 	256
scalar RSUExampleScenario.node[39].veinsmobility 	stopTime 	350
scalar RSUExampleScenario.node[39].veinsmobility 	minSpeed 	0
scalar RSUExampleScenario.node[39].veinsmobility 	maxSpeed 	13.999674909203
scalar RSUExampleScenario.node[39].veinsmobility 	totalDistance 	1798.5973621692
scalar RSUExampleScenario.node[39].veinsmobility 	totalCO2Emission 	495.21083236903
scalar RSUExampleScenario.node[4].veinsmobility 	startTime 	9.7
scalar RSUExampleScenario.node[4].veinsmobility 	totalTime 	340.3
scalar RSUExampleScenario.node[4].veinsmobility 	stopTime 	350
scalar RSUExampleScenario.node[4].veinsmobility 	minSpeed 	0
scalar RSUExampleScenario.node[4].veinsmobility 	maxSpeed 	13.999747579545
scalar RSUExampleScenario.node[4].veinsmobility 	totalDistance 	2946.9308742717
scalar RSUExampleScenario.node[4].veinsmobility 	totalCO2Emission 	700.94111665681
scalar RSUExampleScenario.node[40].veinsmobility 	startTime 	96.5
scalar RSUExampleScenario.node[40].veinsmobility 	totalTime 	253.5
scalar RSUExampleScenario.node[40].veinsmobility 	stopTime 	350
scalar RSUExampleScenario.node[40].veinsmobility 	minSpeed 	0
scalar RSUExampleScenario.node[40].veinsmobility 	maxSpeed 	13.999689445554
scalar RSUExampleScenario.node[40].veinsmobility 	totalDistance 	1762.6970155991
scalar RSUExampleScenario.node[40].veinsmobility 	totalCO2Emission 	490.32411279656
scalar RSUExampleScenario.node[41].veinsmobility 	startTime 	98.9
scalar RSUExampleScenario.node[41].veinsmobility 	totalTime 	251.1
scalar RSUExampleScenario.node[41].veinsmobility 	stopTime 	350
scalar RSUExampleScenario.node[41].veinsmobility 	minSpeed 	0
scalar RSUExampleScenario.node[41].veinsmobility 	maxSpeed 	13.999996453652
scalar RSUExampleScenario.node[41].veinsmobility 	totalDistance 	1729.338382283
scalar RSUExampleScenario.node[41].veinsmobility 	totalCO2Emission 	481.76240798922
scalar RSUExampleScenario.node[42].veinsmobility 	startTime 	101.3
scalar RSUExampleScenario.node[42].veinsmobility 	totalTime 	248.7
scalar RSUExampleScenario.node[42].veinsmobility 	stopTime 	350
scalar RSUExampleScenario.node[42].veinsmobility 	minSpeed 	0
scalar RSUExampleScenario.node[42].veinsmobility 	maxSpeed 	13.999926273548
scalar RSUExampleScenario.node[42].veinsmobility 	totalDistance 	1695.4155770444
scalar RSUExampleScenario.node[42].veinsmobility 	totalCO2Emission 	481.49162571893
scalar RSUExampleScenario.node[43].veinsmobility 	startTime 	103.7
scalar RSUExampleScenario.node[43].veinsmobility 	totalTime 	246.3
scalar RSUExampleScenario.node[43].veinsmobility 	stopTime 	350
scalar RSUExampleScenario.node[43].veinsmobility 	minSpeed 	0
scalar RSUExampleScenario.node[43].veinsmobility 	maxSpeed 	13.99999244272
scalar RSUExampleScenario.node[43].veinsmobility 	totalDistance 	1663.8485193886
scalar RSUExampleScenario.node[43].veinsmobility 	totalCO2Emission 	471.7730173659
scalar RSUExampleScenario.node[44].veinsmobility 	startTime 	106.1
scalar RSUExampleScenario.node[44].veinsmobility 	totalTime 	243.9
scalar RSUExampleScenario.node[44].veinsmobility 	stopTime 	350
scalar RSUExampleScenario.node[44].veinsmobility 	minSpeed 	0
scalar RSUExampleScenario.node[44].veinsmobility 	maxSpeed 	13.999981044827
scalar RSUExampleScenario.node[44].veinsmobility 	totalDistance 	1628.5814632074
scalar RSUExampleScenario.node[44].veinsmobility 	totalCO2Emission 	467.52117221259
scalar RSUExampleScenario.node[45].veinsmobility 	startTime 	108.5
scalar RSUExampleScenario.node[45].veinsmobility 	totalTime 	241.5
scalar RSUExampleScenario.node[45].veinsmobility 	stopTime 	350
scalar RSUExampleScenario.node[45].veinsmobility 	minSpeed 	0
scalar RSUExampleScenario.node[45].veinsmobility 	maxSpeed 	13.999618500185
scalar RSUExampleScenario.node[45].veinsmobility 	totalDistance 	1594.6476450218
scalar RSUExampleScenario.node[45].veinsmobility 	totalCO2Emission 	460.37432628035
scalar RSUExampleScenario.node[46].veinsmobility 	startTime 	110.9
scalar RSUExampleScenario.node[46].veinsmobility 	totalTime 	239.1
scalar RSUExampleScenario.node[46].veinsmobility 	stopTime 	350
scalar RSUExampleScenario.node[46].veinsmobility 	minSpeed 	0
scalar RSUExampleScenario.node[46].veinsmobility 	maxSpeed 	13.999652331467
scalar RSUExampleScenario.node[46].veinsmobility 	totalDistance 	1561.2665716907
scalar RSUExampleScenario.node[46].veinsmobility 	totalCO2Emission 	456.5955408938
scalar RSUExampleScenario.node[47].veinsmobility 	startTime 	113.3
scalar RSUExampleScenario.node[47].veinsmobility 	totalTime 	236.7
scalar RSUExampleScenario.node[47].veinsmobility 	stopTime 	350
scalar RSUExampleScenario.node[47].veinsmobility 	minSpeed 	0
scalar RSUExampleScenario.node[47].veinsmobility 	maxSpeed 	13.999947916882
scalar RSUExampleScenario.node[47].veinsmobility 	totalDistance 	1529.0287136764
scalar RSUExampleScenario.node[47].veinsmobility 	totalCO2Emission 	452.03131923483
scalar RSUExampleScenario.node[48].veinsmobility 	startTime 	115.7
scalar RSUExampleScenario.node[48].veinsmobility 	totalTime 	234.3
scalar RSUExampleScenario.node[48].veinsmobility 	stopTime 	350
scalar RSUExampleScenario.node[48].veinsmobility 	minSpeed 	0
scalar RSUExampleScenario.node[48].veinsmobility 	maxSpeed 	13.999900484015
scalar RSUExampleScenario.node[48].veinsmobility 	totalDistance 	1495.5403558595
scalar RSUExampleScenario.node[48].veinsmobility 	totalCO2Emission 	445.31612740216
scalar RSUExampleScenario.node[49].veinsmobility 	startTime 	118.1
scalar RSUExampleScenario.node[49].veinsmobility 	totalTime 	231.9
scalar RSUExampleScenario.node[49].veinsmobility 	stopTime 	350
scalar RSUExampleScenario.node[49].veinsmobility 	minSpeed 	0
scalar RSUExampleScenario.node[49].veinsmobility 	maxSpeed 	13.99964094332
scalar RSUExampleScenario.node[49].veinsmobility 	totalDistance 	1461.0991724755
scalar RSUExampleScenario.node[49].veinsmobility 	totalCO2Emission 	440.37748861804
scalar RSUExampleScenario.node[5].veinsmobility 	startTime 	12.1
scalar RSUExampleScenario.node[5].veinsmobility 	totalTime 	337.9
scalar RSUExampleScenario.node[5].veinsmobility 	stopTime 	350
scalar RSUExampleScenario.node[5].veinsmobility 	minSpeed 	0
scalar RSUExampleScenario.node[5].veinsmobility 	maxSpeed 	13.999862030207
scalar RSUExampleScenario.node[5].veinsmobility 	totalDistance 	2917.91188663
scalar RSUExampleScenario.node[5].veinsmobility 	totalCO2Emission 	686.91570114254
scalar RSUExampleScenario.node[50].veinsmobility 	startTime 	120.6
scalar RSUExampleScenario.node[50].veinsmobility 	totalTime 	229.4
scalar RSUExampleScenario.node[50].veinsmobility 	stopTime 	350
scalar RSUExampleScenario.node[50].veinsmobility 	minSpeed 	0
scalar RSUExampleScenario.node[50].veinsmobility 	maxSpeed 	13.999916455825
scalar RSUExampleScenario.node[50].veinsmobility 	totalDistance 	1427.4906891784
scalar RSUExampleScenario.node[50].veinsmobility 	totalCO2Emission 	433.38824466935
scalar RSUExampleScenario.node[51].veinsmobility 	startTime 	123
scalar RSUExampleScenario.node[51].veinsmobility 	totalTime 	227
scalar RSUExampleScenario.node[51].veinsmobility 	stopTime 	350
scalar RSUExampleScenario.node[51].veinsmobility 	minSpeed 	0
scalar RSUExampleScenario.node[51].veinsmobility 	maxSpeed 	13.999682153997
scalar RSUExampleScenario.node[51].veinsmobility 	totalDistance 	1393.9858883414
scalar RSUExampleScenario.node[51].veinsmobility 	totalCO2Emission 	430.18822889003
scalar RSUExampleScenario.node[52].veinsmobility 	startTime 	125.4
scalar RSUExampleScenario.node[52].veinsmobility 	totalTime 	224.6
scalar RSUExampleScenario.node[52].veinsmobility 	stopTime 	350
scalar RSUExampleScenario.node[52].veinsmobility 	minSpeed 	0
scalar RSUExampleScenario.node[52].veinsmobility 	maxSpeed 	13.999998200901
scalar RSUExampleScenario.node[52].veinsmobility 	totalDistance 	1358.699932976
scalar RSUExampleScenario.node[52].veinsmobility 	totalCO2Emission 	420.10162987342
scalar RSUExampleScenario.node[53].veinsmobility 	startTime 	127.8
scalar RSUExampleScenario.node[53].veinsmobility 	totalTime 	222.2
scalar RSUExampleScenario.node[53].veinsmobility 	stopTime 	350
scalar RSUExampleScenario.node[53].veinsmobility 	minSpeed 	0
scalar RSUExampleScenario.node[53].veinsmobility 	maxSpeed 	13.999960887711
scalar RSUExampleScenario.node[53].veinsmobility 	totalDistance 	1327.522429059
scalar RSUExampleScenario.node[53].veinsmobility 	totalCO2Emission 	414.63603528063
scalar RSUExampleScenario.node[54].veinsmobility 	startTime 	130.2
scalar RSUExampleScenario.node[54].veinsmobility 	totalTime 	219.8
scalar RSUExampleScenario.node[54].veinsmobility 	stopTime 	350
scalar RSUExampleScenario.node[54].veinsmobility 	minSpeed 	0
scalar RSUExampleScenario.node[54].veinsmobility 	maxSpeed 	13.99984573459
scalar RSUExampleScenario.node[54].veinsmobility 	totalDistance 	1294.2245593929
scalar RSUExampleScenario.node[54].veinsmobility 	totalCO2Emission 	411.19971800191
scalar RSUExampleScenario.node[55].veinsmobility 	startTime 	132.6
scalar RSUExampleScenario.node[55].veinsmobility 	totalTime 	217.4
scalar RSUExampleScenario.node[55].veinsmobility 	stopTime 	350
scalar RSUExampleScenario.node[55].veinsmobility 	minSpeed 	0
scalar RSUExampleScenario.node[55].veinsmobility 	maxSpeed 	13.999890053698
scalar RSUExampleScenario.node[55].veinsmobility 	totalDistance 	1256.8180407063
scalar RSUExampleScenario.node[55].veinsmobility 	totalCO2Emission 	404.93207964311
scalar RSUExampleScenario.node[56].veinsmobility 	startTime 	135
scalar RSUExampleScenario.node[56].veinsmobility 	totalTime 	215
scalar RSUExampleScenario.node[56].veinsmobility 	stopTime 	350
scalar RSUExampleScenario.node[56].veinsmobility 	minSpeed 	0
scalar RSUExampleScenario.node[56].veinsmobility 	maxSpeed 	13.999790415764
scalar RSUExampleScenario.node[56].veinsmobility 	totalDistance 	1223.7493420406
scalar RSUExampleScenario.node[56].veinsmobility 	totalCO2Emission 	397.94803649815
scalar RSUExampleScenario.node[57].veinsmobility 	startTime 	137.4
scalar RSUExampleScenario.node[57].veinsmobility 	totalTime 	212.6
scalar RSUExampleScenario.node[57].veinsmobility 	stopTime 	350
scalar RSUExampleScenario.node[57].veinsmobility 	minSpeed 	0
scalar RSUExampleScenario.node[57].veinsmobility 	maxSpeed 	13.999990614806
scalar RSUExampleScenario.node[57].veinsmobility 	totalDistance 	1190.9563482565
scalar RSUExampleScenario.node[57].veinsmobility 	totalCO2Emission 	391.731580442
scalar RSUExampleScenario.node[58].veinsmobility 	startTime 	139.8
scalar RSUExampleScenario.node[58].veinsmobility 	totalTime 	210.2
scalar RSUExampleScenario.node[58].veinsmobility 	stopTime 	350
scalar RSUExampleScenario.node[58].veinsmobility 	minSpeed 	0
scalar RSUExampleScenario.node[58].veinsmobility 	maxSpeed 	13.999968615975
scalar RSUExampleScenario.node[58].veinsmobility 	totalDistance 	1158.0657270121
scalar RSUExampleScenario.node[58].veinsmobility 	totalCO2Emission 	389.23321053994
scalar RSUExampleScenario.node[59].veinsmobility 	startTime 	142.2
scalar RSUExampleScenario.node[59].veinsmobility 	totalTime 	207.8
scalar RSUExampleScenario.node[59].veinsmobility 	stopTime 	350
scalar RSUExampleScenario.node[59].veinsmobility 	minSpeed 	0
scalar RSUExampleScenario.node[59].veinsmobility 	maxSpeed 	13.999894465439
scalar RSUExampleScenario.node[59].veinsmobility 	totalDistance 	1123.3051572477
scalar RSUExampleScenario.node[59].veinsmobility 	totalCO2Emission 	382.59472469446
scalar RSUExampleScenario.node[6].veinsmobility 	startTime 	14.5
scalar RSUExampleScenario.node[6].veinsmobility 	totalTime 	335.5
scalar RSUExampleScenario.node[6].veinsmobility 	stopTime 	350
scalar RSUExampleScenario.node[6].veinsmobility 	minSpeed 	0
scalar RSUExampleScenario.node[6].veinsmobility 	maxSpeed 	13.999966893878
scalar RSUExampleScenario.node[6].veinsmobility 	totalDistance 	2901.2796793634
scalar RSUExampleScenario.node[6].veinsmobility 	totalCO2Emission 	684.054917895
scalar RSUExampleScenario.node[60].veinsmobility 	startTime 	144.7
scalar RSUExampleScenario.node[60].veinsmobility 	totalTime 	205.3
scalar RSUExampleScenario.node[60].veinsmobility 	stopTime 	350
scalar RSUExampleScenario.node[60].veinsmobility 	minSpeed 	0
scalar RSUExampleScenario.node[60].veinsmobility 	maxSpeed 	13.999831398583
scalar RSUExampleScenario.node[60].veinsmobility 	totalDistance 	1091.1036352141
scalar RSUExampleScenario.node[60].veinsmobility 	totalCO2Emission 	375.62770399114
scalar RSUExampleScenario.node[61].veinsmobility 	startTime 	147.1
scalar RSUExampleScenario.node[61].veinsmobility 	totalTime 	202.9
scalar RSUExampleScenario.node[61].veinsmobility 	stopTime 	350
scalar RSUExampleScenario.node[61].veinsmobility 	minSpeed 	0
scalar RSUExampleScenario.node[61].veinsmobility 	maxSpeed 	13.999760293369
scalar RSUExampleScenario.node[61].veinsmobility 	totalDistance 	1056.5406260921
scalar RSUExampleScenario.node[61].veinsmobility 	totalCO2Emission 	371.12203706708
scalar RSUExampleScenario.node[62].veinsmobility 	startTime 	149.5
scalar RSUExampleScenario.node[62].veinsmobility 	totalTime 	200.5
scalar RSUExampleScenario.node[62].veinsmobility 	stopTime 	350
scalar RSUExampleScenario.node[62].veinsmobility 	minSpeed 	0
scalar RSUExampleScenario.node[62].veinsmobility 	maxSpeed 	13.999992382275
scalar RSUExampleScenario.node[62].veinsmobility 	totalDistance 	1022.8589382133
scalar RSUExampleScenario.node[62].veinsmobility 	totalCO2Emission 	365.46092696557
scalar RSUExampleScenario.node[63].veinsmobility 	startTime 	151.9
scalar RSUExampleScenario.node[63].veinsmobility 	totalTime 	198.1
scalar RSUExampleScenario.node[63].veinsmobility 	stopTime 	350
scalar RSUExampleScenario.node[63].veinsmobility 	minSpeed 	0
scalar RSUExampleScenario.node[63].veinsmobility 	maxSpeed 	13.99961051428
scalar RSUExampleScenario.node[63].veinsmobility 	totalDistance 	984.16635832369
scalar RSUExampleScenario.node[63].veinsmobility 	totalCO2Emission 	352.75711203804
scalar RSUExampleScenario.node[64].veinsmobility 	startTime 	154.3
scalar RSUExampleScenario.node[64].veinsmobility 	totalTime 	195.7
scalar RSUExampleScenario.node[64].veinsmobility 	stopTime 	350
scalar RSUExampleScenario.node[64].veinsmobility 	minSpeed 	0
scalar RSUExampleScenario.node[64].veinsmobility 	maxSpeed 	13.999903203805
scalar RSUExampleScenario.node[64].veinsmobility 	totalDistance 	952.2749227791
scalar RSUExampleScenario.node[64].veinsmobility 	totalCO2Emission 	336.48064031255
scalar RSUExampleScenario.node[65].veinsmobility 	startTime 	156.7
scalar RSUExampleScenario.node[65].veinsmobility 	totalTime 	193.3
scalar RSUExampleScenario.node[65].veinsmobility 	stopTime 	350
scalar RSUExampleScenario.node[65].veinsmobility 	minSpeed 	0
scalar RSUExampleScenario.node[65].veinsmobility 	maxSpeed 	13.999692849764
scalar RSUExampleScenario.node[65].veinsmobility 	totalDistance 	940.12435326353
scalar RSUExampleScenario.node[65].veinsmobility 	totalCO2Emission 	330.75271970525
scalar RSUExampleScenario.node[66].veinsmobility 	startTime 	159.1
scalar RSUExampleScenario.node[66].veinsmobility 	totalTime 	190.9
scalar RSUExampleScenario.node[66].veinsmobility 	stopTime 	350
scalar RSUExampleScenario.node[66].veinsmobility 	minSpeed 	0
scalar RSUExampleScenario.node[66].veinsmobility 	maxSpeed 	13.999961091052
scalar RSUExampleScenario.node[66].veinsmobility 	totalDistance 	927.49436746003
scalar RSUExampleScenario.node[66].veinsmobility 	totalCO2Emission 	327.7491489242
scalar RSUExampleScenario.node[67].veinsmobility 	startTime 	161.5
scalar RSUExampleScenario.node[67].veinsmobility 	totalTime 	188.5
scalar RSUExampleScenario.node[67].veinsmobility 	stopTime 	350
scalar RSUExampleScenario.node[67].veinsmobility 	minSpeed 	0
scalar RSUExampleScenario.node[67].veinsmobility 	maxSpeed 	13.999986252252
scalar RSUExampleScenario.node[67].veinsmobility 	totalDistance 	912.10193036336
scalar RSUExampleScenario.node[67].veinsmobility 	totalCO2Emission 	323.91010212587
scalar RSUExampleScenario.node[68].veinsmobility 	startTime 	163.9
scalar RSUExampleScenario.node[68].veinsmobility 	totalTime 	186.1
scalar RSUExampleScenario.node[68].veinsmobility 	stopTime 	350
scalar RSUExampleScenario.node[68].veinsmobility 	minSpeed 	0
scalar RSUExampleScenario.node[68].veinsmobility 	maxSpeed 	13.999887399347
scalar RSUExampleScenario.node[68].veinsmobility 	totalDistance 	892.23642878689
scalar RSUExampleScenario.node[68].veinsmobility 	totalCO2Emission 	321.96915366349
scalar RSUExampleScenario.node[69].veinsmobility 	startTime 	166.3
scalar RSUExampleScenario.node[69].veinsmobility 	totalTime 	183.7
scalar RSUExampleScenario.node[69].veinsmobility 	stopTime 	350
scalar RSUExampleScenario.node[69].veinsmobility 	minSpeed 	0
scalar RSUExampleScenario.node[69].veinsmobility 	maxSpeed 	13.999564163373
scalar RSUExampleScenario.node[69].veinsmobility 	totalDistance 	859.42552235616
scalar RSUExampleScenario.node[69].veinsmobility 	totalCO2Emission 	312.91757134547
scalar RSUExampleScenario.node[7].veinsmobility 	startTime 	16.9
scalar RSUExampleScenario.node[7].veinsmobility 	totalTime 	333.1
scalar RSUExampleScenario.node[7].veinsmobility 	stopTime 	350
scalar RSUExampleScenario.node[7].veinsmobility 	minSpeed 	0
scalar RSUExampleScenario.node[7].veinsmobility 	maxSpeed 	13.999990327472
scalar RSUExampleScenario.node[7].veinsmobility 	totalDistance 	2889.1071723805
scalar RSUExampleScenario.node[7].veinsmobility 	totalCO2Emission 	676.8051599745
scalar RSUExampleScenario.node[70].veinsmobility 	startTime 	168.8
scalar RSUExampleScenario.node[70].veinsmobility 	totalTime 	181.2
scalar RSUExampleScenario.node[70].veinsmobility 	stopTime 	350
scalar RSUExampleScenario.node[70].veinsmobility 	minSpeed 	0
scalar RSUExampleScenario.node[70].veinsmobility 	maxSpeed 	13.999858938484
scalar RSUExampleScenario.node[70].veinsmobility 	totalDistance 	825.01374284383
scalar RSUExampleScenario.node[70].veinsmobility 	totalCO2Emission 	310.36639488013
scalar RSUExampleScenario.node[71].veinsmobility 	startTime 	171.2
scalar RSUExampleScenario.node[71].veinsmobility 	totalTime 	178.8
scalar RSUExampleScenario.node[71].veinsmobility 	stopTime 	350
scalar RSUExampleScenario.node[71].veinsmobility 	minSpeed 	0
scalar RSUExampleScenario.node[71].veinsmobility 	maxSpeed 	13.999880670835
scalar RSUExampleScenario.node[71].veinsmobility 	totalDistance 	791.13850654497
scalar RSUExampleScenario.node[71].veinsmobility 	totalCO2Emission 	303.04719270174
scalar RSUExampleScenario.node[72].veinsmobility 	startTime 	173.6
scalar RSUExampleScenario.node[72].veinsmobility 	totalTime 	176.4
scalar RSUExampleScenario.node[72].veinsmobility 	stopTime 	350
scalar RSUExampleScenario.node[72].veinsmobility 	minSpeed 	0
scalar RSUExampleScenario.node[72].veinsmobility 	maxSpeed 	13.99997794148
scalar RSUExampleScenario.node[72].veinsmobility 	totalDistance 	759.58392809684
scalar RSUExampleScenario.node[72].veinsmobility 	totalCO2Emission 	301.50518220324
scalar RSUExampleScenario.node[73].veinsmobility 	startTime 	176
scalar RSUExampleScenario.node[73].veinsmobility 	totalTime 	174
scalar RSUExampleScenario.node[73].veinsmobility 	stopTime 	350
scalar RSUExampleScenario.node[73].veinsmobility 	minSpeed 	0
scalar RSUExampleScenario.node[73].veinsmobility 	maxSpeed 	13.999496123064
scalar RSUExampleScenario.node[73].veinsmobility 	totalDistance 	724.35103179551
scalar RSUExampleScenario.node[73].veinsmobility 	totalCO2Emission 	294.18778378206
scalar RSUExampleScenario.node[74].veinsmobility 	startTime 	178.4
scalar RSUExampleScenario.node[74].veinsmobility 	totalTime 	171.6
scalar RSUExampleScenario.node[74].veinsmobility 	stopTime 	350
scalar RSUExampleScenario.node[74].veinsmobility 	minSpeed 	0
scalar RSUExampleScenario.node[74].veinsmobility 	maxSpeed 	13.999334936093
scalar RSUExampleScenario.node[74].veinsmobility 	totalDistance 	689.22783063584
scalar RSUExampleScenario.node[74].veinsmobility 	totalCO2Emission 	288.50101689726
scalar RSUExampleScenario.node[75].veinsmobility 	startTime 	180.8
scalar RSUExampleScenario.node[75].veinsmobility 	totalTime 	169.2
scalar RSUExampleScenario.node[75].veinsmobility 	stopTime 	350
scalar RSUExampleScenario.node[75].veinsmobility 	minSpeed 	0
scalar RSUExampleScenario.node[75].veinsmobility 	maxSpeed 	13.999241228171
scalar RSUExampleScenario.node[75].veinsmobility 	totalDistance 	656.52188994395
scalar RSUExampleScenario.node[75].veinsmobility 	totalCO2Emission 	281.5550229097
scalar RSUExampleScenario.node[76].veinsmobility 	startTime 	183.2
scalar RSUExampleScenario.node[76].veinsmobility 	totalTime 	166.8
scalar RSUExampleScenario.node[76].veinsmobility 	stopTime 	350
scalar RSUExampleScenario.node[76].veinsmobility 	minSpeed 	0
scalar RSUExampleScenario.node[76].veinsmobility 	maxSpeed 	13.99998358988
scalar RSUExampleScenario.node[76].veinsmobility 	totalDistance 	624.04728448985
scalar RSUExampleScenario.node[76].veinsmobility 	totalCO2Emission 	276.41843225833
scalar RSUExampleScenario.node[77].veinsmobility 	startTime 	185.6
scalar RSUExampleScenario.node[77].veinsmobility 	totalTime 	164.4
scalar RSUExampleScenario.node[77].veinsmobility 	stopTime 	350
scalar RSUExampleScenario.node[77].veinsmobility 	minSpeed 	0
scalar RSUExampleScenario.node[77].veinsmobility 	maxSpeed 	13.999917486298
scalar RSUExampleScenario.node[77].veinsmobility 	totalDistance 	589.14499636727
scalar RSUExampleScenario.node[77].veinsmobility 	totalCO2Emission 	270.16468582568
scalar RSUExampleScenario.node[78].veinsmobility 	startTime 	188
scalar RSUExampleScenario.node[78].veinsmobility 	totalTime 	162
scalar RSUExampleScenario.node[78].veinsmobility 	stopTime 	350
scalar RSUExampleScenario.node[78].veinsmobility 	minSpeed 	0
scalar RSUExampleScenario.node[78].veinsmobility 	maxSpeed 	13.999821506492
scalar RSUExampleScenario.node[78].veinsmobility 	totalDistance 	554.5001285484
scalar RSUExampleScenario.node[78].veinsmobility 	totalCO2Emission 	265.96750394562
scalar RSUExampleScenario.node[79].veinsmobility 	startTime 	190.4
scalar RSUExampleScenario.node[79].veinsmobility 	totalTime 	159.6
scalar RSUExampleScenario.node[79].veinsmobility 	stopTime 	350
scalar RSUExampleScenario.node[79].veinsmobility 	minSpeed 	0
scalar RSUExampleScenario.node[79].veinsmobility 	maxSpeed 	13.999601019728
scalar RSUExampleScenario.node[79].veinsmobility 	totalDistance 	522.95686024899
scalar RSUExampleScenario.node[79].veinsmobility 	totalCO2Emission 	258.25608445259
scalar RSUExampleScenario.node[8].veinsmobility 	startTime 	19.3
scalar RSUExampleScenario.node[8].veinsmobility 	totalTime 	330.7
scalar RSUExampleScenario.node[8].veinsmobility 	stopTime 	350
scalar RSUExampleScenario.node[8].veinsmobility 	minSpeed 	0
scalar RSUExampleScenario.node[8].veinsmobility 	maxSpeed 	13.999954197942
scalar RSUExampleScenario.node[8].veinsmobility 	totalDistance 	2856.4305021779
scalar RSUExampleScenario.node[8].veinsmobility 	totalCO2Emission 	673.47393626292
scalar RSUExampleScenario.node[80].veinsmobility 	startTime 	192.9
scalar RSUExampleScenario.node[80].veinsmobility 	totalTime 	157.1
scalar RSUExampleScenario.node[80].veinsmobility 	stopTime 	350
scalar RSUExampleScenario.node[80].veinsmobility 	minSpeed 	0
scalar RSUExampleScenario.node[80].veinsmobility 	maxSpeed 	13.998737678977
scalar RSUExampleScenario.node[80].veinsmobility 	totalDistance 	489.01741102146
scalar RSUExampleScenario.node[80].veinsmobility 	totalCO2Emission 	253.41393076706
scalar RSUExampleScenario.node[81].veinsmobility 	startTime 	195.3
scalar RSUExampleScenario.node[81].veinsmobility 	totalTime 	154.7
scalar RSUExampleScenario.node[81].veinsmobility 	stopTime 	350
scalar RSUExampleScenario.node[81].veinsmobility 	minSpeed 	0
scalar RSUExampleScenario.node[81].veinsmobility 	maxSpeed 	13.996603378025
scalar RSUExampleScenario.node[81].veinsmobility 	totalDistance 	454.80197703833
scalar RSUExampleScenario.node[81].veinsmobility 	totalCO2Emission 	247.57475271993
scalar RSUExampleScenario.node[82].veinsmobility 	startTime 	197.7
scalar RSUExampleScenario.node[82].veinsmobility 	totalTime 	152.3
scalar RSUExampleScenario.node[82].veinsmobility 	stopTime 	350
scalar RSUExampleScenario.node[82].veinsmobility 	minSpeed 	0
scalar RSUExampleScenario.node[82].veinsmobility 	maxSpeed 	13.998696582925
scalar RSUExampleScenario.node[82].veinsmobility 	totalDistance 	422.5984649235
scalar RSUExampleScenario.node[82].veinsmobility 	totalCO2Emission 	242.0740605732
scalar RSUExampleScenario.node[83].veinsmobility 	startTime 	200.1
scalar RSUExampleScenario.node[83].veinsmobility 	totalTime 	149.9
scalar RSUExampleScenario.node[83].veinsmobility 	stopTime 	350
scalar RSUExampleScenario.node[83].veinsmobility 	minSpeed 	0
scalar RSUExampleScenario.node[83].veinsmobility 	maxSpeed 	13.999500217657
scalar RSUExampleScenario.node[83].veinsmobility 	totalDistance 	388.78229559932
scalar RSUExampleScenario.node[83].veinsmobility 	totalCO2Emission 	236.87644732442
scalar RSUExampleScenario.node[84].veinsmobility 	startTime 	202.5
scalar RSUExampleScenario.node[84].veinsmobility 	totalTime 	147.5
scalar RSUExampleScenario.node[84].veinsmobility 	stopTime 	350
scalar RSUExampleScenario.node[84].veinsmobility 	minSpeed 	0
scalar RSUExampleScenario.node[84].veinsmobility 	maxSpeed 	13.99931156815
scalar RSUExampleScenario.node[84].veinsmobility 	totalDistance 	356.36171559457
scalar RSUExampleScenario.node[84].veinsmobility 	totalCO2Emission 	230.24485390938
scalar RSUExampleScenario.node[85].veinsmobility 	startTime 	204.9
scalar RSUExampleScenario.node[85].veinsmobility 	totalTime 	145.1
scalar RSUExampleScenario.node[85].veinsmobility 	stopTime 	350
scalar RSUExampleScenario.node[85].veinsmobility 	minSpeed 	0
scalar RSUExampleScenario.node[85].veinsmobility 	maxSpeed 	13.999994754347
scalar RSUExampleScenario.node[85].veinsmobility 	totalDistance 	322.61862557783
scalar RSUExampleScenario.node[85].veinsmobility 	totalCO2Emission 	225.7041275021
scalar RSUExampleScenario.node[86].veinsmobility 	startTime 	207.3
scalar RSUExampleScenario.node[86].veinsmobility 	totalTime 	142.7
scalar RSUExampleScenario.node[86].veinsmobility 	stopTime 	350
scalar RSUExampleScenario.node[86].veinsmobility 	minSpeed 	0
scalar RSUExampleScenario.node[86].veinsmobility 	maxSpeed 	13.818082451402
scalar RSUExampleScenario.node[86].veinsmobility 	totalDistance 	284.71870184362
scalar RSUExampleScenario.node[86].veinsmobility 	totalCO2Emission 	217.44883704024
scalar RSUExampleScenario.node[87].veinsmobility 	startTime 	209.7
scalar RSUExampleScenario.node[87].veinsmobility 	totalTime 	140.3
scalar RSUExampleScenario.node[87].veinsmobility 	stopTime 	350
scalar RSUExampleScenario.node[87].veinsmobility 	minSpeed 	0
scalar RSUExampleScenario.node[87].veinsmobility 	maxSpeed 	13.833904923405
scalar RSUExampleScenario.node[87].veinsmobility 	totalDistance 	247.24669456775
scalar RSUExampleScenario.node[87].veinsmobility 	totalCO2Emission 	200.50242341977
scalar RSUExampleScenario.node[88].veinsmobility 	startTime 	212.1
scalar RSUExampleScenario.node[88].veinsmobility 	totalTime 	137.9
scalar RSUExampleScenario.node[88].veinsmobility 	stopTime 	350
scalar RSUExampleScenario.node[88].veinsmobility 	minSpeed 	0
scalar RSUExampleScenario.node[88].veinsmobility 	maxSpeed 	13.773542762984
scalar RSUExampleScenario.node[88].veinsmobility 	totalDistance 	225.51753268952
scalar RSUExampleScenario.node[88].veinsmobility 	totalCO2Emission 	189.81594898586
scalar RSUExampleScenario.node[89].veinsmobility 	startTime 	214.5
scalar RSUExampleScenario.node[89].veinsmobility 	totalTime 	135.5
scalar RSUExampleScenario.node[89].veinsmobility 	stopTime 	350
scalar RSUExampleScenario.node[89].veinsmobility 	minSpeed 	0
scalar RSUExampleScenario.node[89].veinsmobility 	maxSpeed 	13.850930051652
scalar RSUExampleScenario.node[89].veinsmobility 	totalDistance 	214.96698925378
scalar RSUExampleScenario.node[89].veinsmobility 	totalCO2Emission 	185.5760280464
scalar RSUExampleScenario.node[9].veinsmobility 	startTime 	21.7
scalar RSUExampleScenario.node[9].veinsmobility 	totalTime 	328.3
scalar RSUExampleScenario.node[9].veinsmobility 	stopTime 	350
scalar RSUExampleScenario.node[9].veinsmobility 	minSpeed 	0
scalar RSUExampleScenario.node[9].veinsmobility 	maxSpeed 	13.999970600707
scalar RSUExampleScenario.node[9].veinsmobility 	totalDistance 	2829.1578111724
scalar RSUExampleScenario.node[9].veinsmobility 	totalCO2Emission 	667.62785306185
scalar RSUExampleScenario.node[90].veinsmobility 	startTime 	217
scalar RSUExampleScenario.node[90].veinsmobility 	totalTime 	133
scalar RSUExampleScenario.node[90].veinsmobility 	stopTime 	350
scalar RSUExampleScenario.node[90].veinsmobility 	minSpeed 	0
scalar RSUExampleScenario.node[90].veinsmobility 	maxSpeed 	13.828238450361
scalar RSUExampleScenario.node[90].veinsmobility 	totalDistance 	201.98280880261
scalar RSUExampleScenario.node[90].veinsmobility 	totalCO2Emission 	182.6581470968
scalar RSUExampleScenario.node[91].veinsmobility 	startTime 	219.4
scalar RSUExampleScenario.node[91].veinsmobility 	totalTime 	130.6
scalar RSUExampleScenario.node[91].veinsmobility 	stopTime 	350
scalar RSUExampleScenario.node[91].veinsmobility 	minSpeed 	0
scalar RSUExampleScenario.node[91].veinsmobility 	maxSpeed 	13.831177183193
scalar RSUExampleScenario.node[91].veinsmobility 	totalDistance 	185.09905009105
scalar RSUExampleScenario.node[91].veinsmobility 	totalCO2Emission 	180.41430996163
scalar RSUExampleScenario.node[92].veinsmobility 	startTime 	221.8
scalar RSUExampleScenario.node[92].veinsmobility 	totalTime 	128.2
scalar RSUExampleScenario.node[92].veinsmobility 	stopTime 	350
scalar RSUExampleScenario.node[92].veinsmobility 	minSpeed 	0
scalar RSUExampleScenario.node[92].veinsmobility 	maxSpeed 	13.85614248842
scalar RSUExampleScenario.node[92].veinsmobility 	totalDistance 	149.46909064987
scalar RSUExampleScenario.node[92].veinsmobility 	totalCO2Emission 	166.56294625292
scalar RSUExampleScenario.node[93].veinsmobility 	startTime 	224.2
scalar RSUExampleScenario.node[93].veinsmobility 	totalTime 	125.8
scalar RSUExampleScenario.node[93].veinsmobility 	stopTime 	350
scalar RSUExampleScenario.node[93].veinsmobility 	minSpeed 	0
scalar RSUExampleScenario.node[93].veinsmobility 	maxSpeed 	13.797198769096
scalar RSUExampleScenario.node[93].veinsmobility 	totalDistance 	122.79418349806
scalar RSUExampleScenario.node[93].veinsmobility 	totalCO2Emission 	153.64312564215
scalar RSUExampleScenario.node[94].veinsmobility 	startTime 	226.6
scalar RSUExampleScenario.node[94].veinsmobility 	totalTime 	123.4
scalar RSUExampleScenario.node[94].veinsmobility 	stopTime 	350
scalar RSUExampleScenario.node[94].veinsmobility 	minSpeed 	0
scalar RSUExampleScenario.node[94].veinsmobility 	maxSpeed 	13.690321246396
scalar RSUExampleScenario.node[94].veinsmobility 	totalDistance 	111.58397697759
scalar RSUExampleScenario.node[94].veinsmobility 	totalCO2Emission 	147.69915300506
scalar RSUExampleScenario.node[95].veinsmobility 	startTime 	229
scalar RSUExampleScenario.node[95].veinsmobility 	totalTime 	121
scalar RSUExampleScenario.node[95].veinsmobility 	stopTime 	350
scalar RSUExampleScenario.node[95].veinsmobility 	minSpeed 	0
scalar RSUExampleScenario.node[95].veinsmobility 	maxSpeed 	13.844173825406
scalar RSUExampleScenario.node[95].veinsmobility 	totalDistance 	98.734945486342
scalar RSUExampleScenario.node[95].veinsmobility 	totalCO2Emission 	144.83177029799
scalar RSUExampleScenario.node[96].veinsmobility 	startTime 	231.4
scalar RSUExampleScenario.node[96].veinsmobility 	totalTime 	118.6
scalar RSUExampleScenario.node[96].veinsmobility 	stopTime 	350
scalar RSUExampleScenario.node[96].veinsmobility 	minSpeed 	0
scalar RSUExampleScenario.node[96].veinsmobility 	maxSpeed 	13.760755496167
scalar RSUExampleScenario.node[96].veinsmobility 	totalDistance 	83.028312132952
scalar RSUExampleScenario.node[96].veinsmobility 	totalCO2Emission 	142.24876434638
scalar RSUExampleScenario.node[97].veinsmobility 	startTime 	233.8
scalar RSUExampleScenario.node[97].veinsmobility 	totalTime 	116.2
scalar RSUExampleScenario.node[97].veinsmobility 	stopTime 	350
scalar RSUExampleScenario.node[97].veinsmobility 	minSpeed 	0
scalar RSUExampleScenario.node[97].veinsmobility 	maxSpeed 	12.302227275286
scalar RSUExampleScenario.node[97].veinsmobility 	totalDistance 	55.523105577709
scalar RSUExampleScenario.node[97].veinsmobility 	totalCO2Emission 	134.50332547683
scalar RSUExampleScenario.node[98].veinsmobility 	startTime 	236.2
scalar RSUExampleScenario.node[98].veinsmobility 	totalTime 	113.8
scalar RSUExampleScenario.node[98].veinsmobility 	stopTime 	350
scalar RSUExampleScenario.node[98].veinsmobility 	minSpeed 	0
scalar RSUExampleScenario.node[98].veinsmobility 	maxSpeed 	7.4969095793161
scalar RSUExampleScenario.node[98].veinsmobility 	totalDistance 	21.026941045866
scalar RSUExampleScenario.node[98].veinsmobility 	totalCO2Emission 	118.84979453158
scalar RSUExampleScenario.node[99].veinsmobility 	startTime 	238.6
scalar RSUExampleScenario.node[99].veinsmobility 	totalTime 	111.4
scalar RSUExampleScenario.node[99].veinsmobility 	stopTime 	350
scalar RSUExampleScenario.node[99].veinsmobility 	minSpeed 	0
scalar RSUExampleScenario.node[99].veinsmobility 	maxSpeed 	3.020894687095
scalar RSUExampleScenario.node[99].veinsmobility 	totalDistance 	3.2264204297792
scalar RSUExampleScenario.node[99].veinsmobility 	totalCO2Emission 	109.75119894845
