version 2
run statisticRVV-52-20150325-02:00:27-3776
attr c 11
attr configname statisticRVV
attr datetime 20150325-02:00:27
attr experiment statisticRVV
attr inifile omnetpp.ini
attr iterationvars "$sc=\"erlangen-low.launchd.xml\", $p=1/10, $c=11"
attr iterationvars2 "$sc=\"erlangen-low.launchd.xml\", $p=1/10, $c=11, $repetition=2"
attr measurement "$sc=\"erlangen-low.launchd.xml\", $p=1/10, $c=11"
attr network RSUExampleScenario
attr p 1/10
attr processid 3776
attr repetition 2
attr replication #2
attr resultdir results
attr runnumber 52
attr sc "\"erlangen-low.launchd.xml\""
attr seedset 52

scalar . 	c 	11
scalar RSUExampleScenario.node[0].veinsmobility 	startTime 	0.1
scalar RSUExampleScenario.node[0].veinsmobility 	totalTime 	227
scalar RSUExampleScenario.node[0].veinsmobility 	stopTime 	227.2
scalar RSUExampleScenario.node[0].veinsmobility 	minSpeed 	0.24929956558696
scalar RSUExampleScenario.node[0].veinsmobility 	maxSpeed 	18.999920192922
scalar RSUExampleScenario.node[0].veinsmobility 	totalDistance 	3409.281413573
scalar RSUExampleScenario.node[0].veinsmobility 	totalCO2Emission 	707.78599567776
scalar RSUExampleScenario.node[1].veinsmobility 	startTime 	6.1
scalar RSUExampleScenario.node[1].veinsmobility 	totalTime 	227.2
scalar RSUExampleScenario.node[1].veinsmobility 	stopTime 	233.4
scalar RSUExampleScenario.node[1].veinsmobility 	minSpeed 	0.24777810813067
scalar RSUExampleScenario.node[1].veinsmobility 	maxSpeed 	18.999801685533
scalar RSUExampleScenario.node[1].veinsmobility 	totalDistance 	3409.6984513727
scalar RSUExampleScenario.node[1].veinsmobility 	totalCO2Emission 	711.80947946085
scalar RSUExampleScenario.node[2].veinsmobility 	startTime 	12.1
scalar RSUExampleScenario.node[2].veinsmobility 	totalTime 	226.8
scalar RSUExampleScenario.node[2].veinsmobility 	stopTime 	239
scalar RSUExampleScenario.node[2].veinsmobility 	minSpeed 	0.25407947901892
scalar RSUExampleScenario.node[2].veinsmobility 	maxSpeed 	18.999675693295
scalar RSUExampleScenario.node[2].veinsmobility 	totalDistance 	3409.2394491708
scalar RSUExampleScenario.node[2].veinsmobility 	totalCO2Emission 	704.30193757473
scalar RSUExampleScenario.node[3].veinsmobility 	startTime 	18.1
scalar RSUExampleScenario.node[3].veinsmobility 	totalTime 	227.1
scalar RSUExampleScenario.node[3].veinsmobility 	stopTime 	245.3
scalar RSUExampleScenario.node[3].veinsmobility 	minSpeed 	0.25945578766475
scalar RSUExampleScenario.node[3].veinsmobility 	maxSpeed 	18.999912976702
scalar RSUExampleScenario.node[3].veinsmobility 	totalDistance 	3409.396688465
scalar RSUExampleScenario.node[3].veinsmobility 	totalCO2Emission 	708.90206321123
scalar RSUExampleScenario.node[4].veinsmobility 	startTime 	24.1
scalar RSUExampleScenario.node[4].veinsmobility 	totalTime 	226.9
scalar RSUExampleScenario.node[4].veinsmobility 	stopTime 	251.1
scalar RSUExampleScenario.node[4].veinsmobility 	minSpeed 	0.24767682026722
scalar RSUExampleScenario.node[4].veinsmobility 	maxSpeed 	18.999914384466
scalar RSUExampleScenario.node[4].veinsmobility 	totalDistance 	3409.604547057
scalar RSUExampleScenario.node[4].veinsmobility 	totalCO2Emission 	707.31670518985
scalar RSUExampleScenario.node[5].veinsmobility 	startTime 	30.1
scalar RSUExampleScenario.node[5].veinsmobility 	totalTime 	226.7
scalar RSUExampleScenario.node[5].veinsmobility 	stopTime 	256.9
scalar RSUExampleScenario.node[5].veinsmobility 	minSpeed 	0.25072614338412
scalar RSUExampleScenario.node[5].veinsmobility 	maxSpeed 	18.999996795468
scalar RSUExampleScenario.node[5].veinsmobility 	totalDistance 	3409.7967918213
scalar RSUExampleScenario.node[5].veinsmobility 	totalCO2Emission 	710.29934875229
scalar RSUExampleScenario.node[6].veinsmobility 	startTime 	36.1
scalar RSUExampleScenario.node[6].veinsmobility 	totalTime 	226.9
scalar RSUExampleScenario.node[6].veinsmobility 	stopTime 	263.1
scalar RSUExampleScenario.node[6].veinsmobility 	minSpeed 	0.2592153581134
scalar RSUExampleScenario.node[6].veinsmobility 	maxSpeed 	18.999958682749
scalar RSUExampleScenario.node[6].veinsmobility 	totalDistance 	3409.8967857929
scalar RSUExampleScenario.node[6].veinsmobility 	totalCO2Emission 	708.2958351209
scalar RSUExampleScenario.node[7].veinsmobility 	startTime 	42.1
scalar RSUExampleScenario.node[7].veinsmobility 	totalTime 	226.8
scalar RSUExampleScenario.node[7].veinsmobility 	stopTime 	269
scalar RSUExampleScenario.node[7].veinsmobility 	minSpeed 	0.25917099597328
scalar RSUExampleScenario.node[7].veinsmobility 	maxSpeed 	18.999866649525
scalar RSUExampleScenario.node[7].veinsmobility 	totalDistance 	3409.2774077779
scalar RSUExampleScenario.node[7].veinsmobility 	totalCO2Emission 	707.97863856964
scalar RSUExampleScenario.node[8].veinsmobility 	startTime 	48.1
scalar RSUExampleScenario.node[8].veinsmobility 	totalTime 	226.8
scalar RSUExampleScenario.node[8].veinsmobility 	stopTime 	275
scalar RSUExampleScenario.node[8].veinsmobility 	minSpeed 	0.25567365219141
scalar RSUExampleScenario.node[8].veinsmobility 	maxSpeed 	18.999787864808
scalar RSUExampleScenario.node[8].veinsmobility 	totalDistance 	3409.5207927613
scalar RSUExampleScenario.node[8].veinsmobility 	totalCO2Emission 	710.30091993402
scalar RSUExampleScenario.node[9].veinsmobility 	startTime 	54.1
scalar RSUExampleScenario.node[9].veinsmobility 	totalTime 	227
scalar RSUExampleScenario.node[9].veinsmobility 	stopTime 	281.2
scalar RSUExampleScenario.node[9].veinsmobility 	minSpeed 	0.25142716899421
scalar RSUExampleScenario.node[9].veinsmobility 	maxSpeed 	18.999808140574
scalar RSUExampleScenario.node[9].veinsmobility 	totalDistance 	3409.9793780778
scalar RSUExampleScenario.node[9].veinsmobility 	totalCO2Emission 	704.28319302862
scalar RSUExampleScenario.node[10].veinsmobility 	startTime 	60.1
scalar RSUExampleScenario.node[10].veinsmobility 	totalTime 	226.7
scalar RSUExampleScenario.node[10].veinsmobility 	stopTime 	286.9
scalar RSUExampleScenario.node[10].veinsmobility 	minSpeed 	0.24705210649734
scalar RSUExampleScenario.node[10].veinsmobility 	maxSpeed 	18.999731563907
scalar RSUExampleScenario.node[10].veinsmobility 	totalDistance 	3409.2913994019
scalar RSUExampleScenario.node[10].veinsmobility 	totalCO2Emission 	706.09424508451
scalar RSUExampleScenario.node[11].veinsmobility 	startTime 	66.1
scalar RSUExampleScenario.node[11].veinsmobility 	totalTime 	226.9
scalar RSUExampleScenario.node[11].veinsmobility 	stopTime 	293.1
scalar RSUExampleScenario.node[11].veinsmobility 	minSpeed 	0.25851435760455
scalar RSUExampleScenario.node[11].veinsmobility 	maxSpeed 	18.999986248075
scalar RSUExampleScenario.node[11].veinsmobility 	totalDistance 	3409.5769329713
scalar RSUExampleScenario.node[11].veinsmobility 	totalCO2Emission 	706.71296489664
scalar RSUExampleScenario.node[12].veinsmobility 	startTime 	72.1
scalar RSUExampleScenario.node[12].veinsmobility 	totalTime 	227.1
scalar RSUExampleScenario.node[12].veinsmobility 	stopTime 	299.3
scalar RSUExampleScenario.node[12].veinsmobility 	minSpeed 	0.25270574679971
scalar RSUExampleScenario.node[12].veinsmobility 	maxSpeed 	18.999446855716
scalar RSUExampleScenario.node[12].veinsmobility 	totalDistance 	3409.9780705075
scalar RSUExampleScenario.node[12].veinsmobility 	totalCO2Emission 	707.60196726119
scalar RSUExampleScenario.node[13].veinsmobility 	startTime 	78.1
scalar RSUExampleScenario.node[13].veinsmobility 	totalTime 	226.9
scalar RSUExampleScenario.node[13].veinsmobility 	stopTime 	305.1
scalar RSUExampleScenario.node[13].veinsmobility 	minSpeed 	0.25894432030269
scalar RSUExampleScenario.node[13].veinsmobility 	maxSpeed 	18.999741946098
scalar RSUExampleScenario.node[13].veinsmobility 	totalDistance 	3409.3782987561
scalar RSUExampleScenario.node[13].veinsmobility 	totalCO2Emission 	703.26247544084
scalar RSUExampleScenario.node[14].veinsmobility 	startTime 	84.1
scalar RSUExampleScenario.node[14].veinsmobility 	totalTime 	226.9
scalar RSUExampleScenario.node[14].veinsmobility 	stopTime 	311.1
scalar RSUExampleScenario.node[14].veinsmobility 	minSpeed 	0.24733203626983
scalar RSUExampleScenario.node[14].veinsmobility 	maxSpeed 	18.999912446982
scalar RSUExampleScenario.node[14].veinsmobility 	totalDistance 	3409.5350702981
scalar RSUExampleScenario.node[14].veinsmobility 	totalCO2Emission 	711.52922945003
scalar RSUExampleScenario.node[15].veinsmobility 	startTime 	90.1
scalar RSUExampleScenario.node[15].veinsmobility 	totalTime 	227
scalar RSUExampleScenario.node[15].veinsmobility 	stopTime 	317.2
scalar RSUExampleScenario.node[15].veinsmobility 	minSpeed 	0.25503463454428
scalar RSUExampleScenario.node[15].veinsmobility 	maxSpeed 	18.999656317942
scalar RSUExampleScenario.node[15].veinsmobility 	totalDistance 	3409.4614970803
scalar RSUExampleScenario.node[15].veinsmobility 	totalCO2Emission 	706.87622467741
scalar RSUExampleScenario.node[16].veinsmobility 	startTime 	96.1
scalar RSUExampleScenario.node[16].veinsmobility 	totalTime 	226.8
scalar RSUExampleScenario.node[16].veinsmobility 	stopTime 	323
scalar RSUExampleScenario.node[16].veinsmobility 	minSpeed 	0.25976683229185
scalar RSUExampleScenario.node[16].veinsmobility 	maxSpeed 	18.999643522031
scalar RSUExampleScenario.node[16].veinsmobility 	totalDistance 	3409.3801837033
scalar RSUExampleScenario.node[16].veinsmobility 	totalCO2Emission 	708.71558124254
scalar RSUExampleScenario.node[17].veinsmobility 	startTime 	102.1
scalar RSUExampleScenario.node[17].veinsmobility 	totalTime 	227
scalar RSUExampleScenario.node[17].veinsmobility 	stopTime 	329.2
scalar RSUExampleScenario.node[17].veinsmobility 	minSpeed 	0.25962105581351
scalar RSUExampleScenario.node[17].veinsmobility 	maxSpeed 	18.999914433016
scalar RSUExampleScenario.node[17].veinsmobility 	totalDistance 	3409.5356981591
scalar RSUExampleScenario.node[17].veinsmobility 	totalCO2Emission 	703.97787978082
scalar RSUExampleScenario.node[18].veinsmobility 	startTime 	108.1
scalar RSUExampleScenario.node[18].veinsmobility 	totalTime 	226.8
scalar RSUExampleScenario.node[18].veinsmobility 	stopTime 	335
scalar RSUExampleScenario.node[18].veinsmobility 	minSpeed 	0.24833835331094
scalar RSUExampleScenario.node[18].veinsmobility 	maxSpeed 	18.999673962239
scalar RSUExampleScenario.node[18].veinsmobility 	totalDistance 	3409.2257443331
scalar RSUExampleScenario.node[18].veinsmobility 	totalCO2Emission 	708.69870731832
scalar RSUExampleScenario.node[19].veinsmobility 	startTime 	114.1
scalar RSUExampleScenario.node[19].veinsmobility 	totalTime 	227
scalar RSUExampleScenario.node[19].veinsmobility 	stopTime 	341.2
scalar RSUExampleScenario.node[19].veinsmobility 	minSpeed 	0.2540570319735
scalar RSUExampleScenario.node[19].veinsmobility 	maxSpeed 	18.999676847807
scalar RSUExampleScenario.node[19].veinsmobility 	totalDistance 	3409.3093353209
scalar RSUExampleScenario.node[19].veinsmobility 	totalCO2Emission 	711.05928957904
scalar RSUExampleScenario.node[20].veinsmobility 	startTime 	120.1
scalar RSUExampleScenario.node[20].veinsmobility 	totalTime 	226.9
scalar RSUExampleScenario.node[20].veinsmobility 	stopTime 	347.1
scalar RSUExampleScenario.node[20].veinsmobility 	minSpeed 	0.2487381841254
scalar RSUExampleScenario.node[20].veinsmobility 	maxSpeed 	18.99982896985
scalar RSUExampleScenario.node[20].veinsmobility 	totalDistance 	3409.5724273754
scalar RSUExampleScenario.node[20].veinsmobility 	totalCO2Emission 	707.95538559538
scalar RSUExampleScenario.node[21].veinsmobility 	startTime 	126.1
scalar RSUExampleScenario.node[21].veinsmobility 	totalTime 	227.1
scalar RSUExampleScenario.node[21].veinsmobility 	stopTime 	353.3
scalar RSUExampleScenario.node[21].veinsmobility 	minSpeed 	0.24834165544505
scalar RSUExampleScenario.node[21].veinsmobility 	maxSpeed 	18.999939348742
scalar RSUExampleScenario.node[21].veinsmobility 	totalDistance 	3409.5440598606
scalar RSUExampleScenario.node[21].veinsmobility 	totalCO2Emission 	708.78322203168
scalar RSUExampleScenario.node[22].veinsmobility 	startTime 	132.1
scalar RSUExampleScenario.node[22].veinsmobility 	totalTime 	227.1
scalar RSUExampleScenario.node[22].veinsmobility 	stopTime 	359.3
scalar RSUExampleScenario.node[22].veinsmobility 	minSpeed 	0.24708836260508
scalar RSUExampleScenario.node[22].veinsmobility 	maxSpeed 	18.999876458622
scalar RSUExampleScenario.node[22].veinsmobility 	totalDistance 	3409.3878661519
scalar RSUExampleScenario.node[22].veinsmobility 	totalCO2Emission 	702.45013197826
scalar RSUExampleScenario.node[23].veinsmobility 	startTime 	138.1
scalar RSUExampleScenario.node[23].veinsmobility 	totalTime 	227
scalar RSUExampleScenario.node[23].veinsmobility 	stopTime 	365.2
scalar RSUExampleScenario.node[23].veinsmobility 	minSpeed 	0.25588937236532
scalar RSUExampleScenario.node[23].veinsmobility 	maxSpeed 	18.999858858697
scalar RSUExampleScenario.node[23].veinsmobility 	totalDistance 	3409.6583984243
scalar RSUExampleScenario.node[23].veinsmobility 	totalCO2Emission 	703.43168418603
scalar RSUExampleScenario.node[24].veinsmobility 	startTime 	144.1
scalar RSUExampleScenario.node[24].veinsmobility 	totalTime 	226.9
scalar RSUExampleScenario.node[24].veinsmobility 	stopTime 	371.1
scalar RSUExampleScenario.node[24].veinsmobility 	minSpeed 	0.2562102494319
scalar RSUExampleScenario.node[24].veinsmobility 	maxSpeed 	18.999883745608
scalar RSUExampleScenario.node[24].veinsmobility 	totalDistance 	3409.5603787991
scalar RSUExampleScenario.node[24].veinsmobility 	totalCO2Emission 	705.60700669816
scalar RSUExampleScenario.node[25].veinsmobility 	startTime 	150.1
scalar RSUExampleScenario.node[25].veinsmobility 	totalTime 	226.6
scalar RSUExampleScenario.node[25].veinsmobility 	stopTime 	376.8
scalar RSUExampleScenario.node[25].veinsmobility 	minSpeed 	0.25008544561872
scalar RSUExampleScenario.node[25].veinsmobility 	maxSpeed 	18.999690854196
scalar RSUExampleScenario.node[25].veinsmobility 	totalDistance 	3409.3323648532
scalar RSUExampleScenario.node[25].veinsmobility 	totalCO2Emission 	709.44538400579
scalar RSUExampleScenario.node[26].veinsmobility 	startTime 	156.1
scalar RSUExampleScenario.node[26].veinsmobility 	totalTime 	226.8
scalar RSUExampleScenario.node[26].veinsmobility 	stopTime 	383
scalar RSUExampleScenario.node[26].veinsmobility 	minSpeed 	0.25267446074937
scalar RSUExampleScenario.node[26].veinsmobility 	maxSpeed 	18.999651461141
scalar RSUExampleScenario.node[26].veinsmobility 	totalDistance 	3409.3948233692
scalar RSUExampleScenario.node[26].veinsmobility 	totalCO2Emission 	701.12019442651
scalar RSUExampleScenario.node[27].veinsmobility 	startTime 	162.1
scalar RSUExampleScenario.node[27].veinsmobility 	totalTime 	226.9
scalar RSUExampleScenario.node[27].veinsmobility 	stopTime 	389.1
scalar RSUExampleScenario.node[27].veinsmobility 	minSpeed 	0.25680249012285
scalar RSUExampleScenario.node[27].veinsmobility 	maxSpeed 	18.999714556357
scalar RSUExampleScenario.node[27].veinsmobility 	totalDistance 	3409.2857629529
scalar RSUExampleScenario.node[27].veinsmobility 	totalCO2Emission 	709.22593804856
scalar RSUExampleScenario.node[28].veinsmobility 	startTime 	168.1
scalar RSUExampleScenario.node[28].veinsmobility 	totalTime 	227.2
scalar RSUExampleScenario.node[28].veinsmobility 	stopTime 	395.4
scalar RSUExampleScenario.node[28].veinsmobility 	minSpeed 	0.25794463056675
scalar RSUExampleScenario.node[28].veinsmobility 	maxSpeed 	18.999955157558
scalar RSUExampleScenario.node[28].veinsmobility 	totalDistance 	3409.3519502152
scalar RSUExampleScenario.node[28].veinsmobility 	totalCO2Emission 	707.63578795274
scalar RSUExampleScenario.node[29].veinsmobility 	startTime 	174.1
scalar RSUExampleScenario.node[29].veinsmobility 	totalTime 	227
scalar RSUExampleScenario.node[29].veinsmobility 	stopTime 	401.2
scalar RSUExampleScenario.node[29].veinsmobility 	minSpeed 	0.25381848301436
scalar RSUExampleScenario.node[29].veinsmobility 	maxSpeed 	18.999358185537
scalar RSUExampleScenario.node[29].veinsmobility 	totalDistance 	3409.5149563649
scalar RSUExampleScenario.node[29].veinsmobility 	totalCO2Emission 	705.66801115806
scalar RSUExampleScenario.node[30].veinsmobility 	startTime 	180.1
scalar RSUExampleScenario.node[30].veinsmobility 	totalTime 	226.7
scalar RSUExampleScenario.node[30].veinsmobility 	stopTime 	406.9
scalar RSUExampleScenario.node[30].veinsmobility 	minSpeed 	0.25296676029009
scalar RSUExampleScenario.node[30].veinsmobility 	maxSpeed 	18.999948854372
scalar RSUExampleScenario.node[30].veinsmobility 	totalDistance 	3409.4635099726
scalar RSUExampleScenario.node[30].veinsmobility 	totalCO2Emission 	707.0781731205
scalar RSUExampleScenario.node[31].veinsmobility 	startTime 	186.1
scalar RSUExampleScenario.node[31].veinsmobility 	totalTime 	226.8
scalar RSUExampleScenario.node[31].veinsmobility 	stopTime 	413
scalar RSUExampleScenario.node[31].veinsmobility 	minSpeed 	0.25087845358206
scalar RSUExampleScenario.node[31].veinsmobility 	maxSpeed 	18.999955115335
scalar RSUExampleScenario.node[31].veinsmobility 	totalDistance 	3409.4738098285
scalar RSUExampleScenario.node[31].veinsmobility 	totalCO2Emission 	708.18178582851
scalar RSUExampleScenario.node[32].veinsmobility 	startTime 	192.1
scalar RSUExampleScenario.node[32].veinsmobility 	totalTime 	227
scalar RSUExampleScenario.node[32].veinsmobility 	stopTime 	419.2
scalar RSUExampleScenario.node[32].veinsmobility 	minSpeed 	0.25027453164686
scalar RSUExampleScenario.node[32].veinsmobility 	maxSpeed 	18.99991287143
scalar RSUExampleScenario.node[32].veinsmobility 	totalDistance 	3409.2428883135
scalar RSUExampleScenario.node[32].veinsmobility 	totalCO2Emission 	704.1200030827
scalar RSUExampleScenario.node[33].veinsmobility 	startTime 	198.1
scalar RSUExampleScenario.node[33].veinsmobility 	totalTime 	226.9
scalar RSUExampleScenario.node[33].veinsmobility 	stopTime 	425.1
scalar RSUExampleScenario.node[33].veinsmobility 	minSpeed 	0.24780640902231
scalar RSUExampleScenario.node[33].veinsmobility 	maxSpeed 	18.999812886564
scalar RSUExampleScenario.node[33].veinsmobility 	totalDistance 	3409.2747403711
scalar RSUExampleScenario.node[33].veinsmobility 	totalCO2Emission 	707.98875629601
scalar RSUExampleScenario.node[34].veinsmobility 	startTime 	204.1
scalar RSUExampleScenario.node[34].veinsmobility 	totalTime 	226.8
scalar RSUExampleScenario.node[34].veinsmobility 	stopTime 	431
scalar RSUExampleScenario.node[34].veinsmobility 	minSpeed 	0.25311579756555
scalar RSUExampleScenario.node[34].veinsmobility 	maxSpeed 	18.999882804758
scalar RSUExampleScenario.node[34].veinsmobility 	totalDistance 	3409.2996158635
scalar RSUExampleScenario.node[34].veinsmobility 	totalCO2Emission 	709.12104821704
scalar RSUExampleScenario.node[35].veinsmobility 	startTime 	210.1
scalar RSUExampleScenario.node[35].veinsmobility 	totalTime 	226.7
scalar RSUExampleScenario.node[35].veinsmobility 	stopTime 	436.9
scalar RSUExampleScenario.node[35].veinsmobility 	minSpeed 	0.25435756320716
scalar RSUExampleScenario.node[35].veinsmobility 	maxSpeed 	18.999951923727
scalar RSUExampleScenario.node[35].veinsmobility 	totalDistance 	3409.2292243565
scalar RSUExampleScenario.node[35].veinsmobility 	totalCO2Emission 	705.90752932842
scalar RSUExampleScenario.node[36].veinsmobility 	startTime 	216.1
scalar RSUExampleScenario.node[36].veinsmobility 	totalTime 	226.9
scalar RSUExampleScenario.node[36].veinsmobility 	stopTime 	443.1
scalar RSUExampleScenario.node[36].veinsmobility 	minSpeed 	0.25552814485901
scalar RSUExampleScenario.node[36].veinsmobility 	maxSpeed 	18.999375168206
scalar RSUExampleScenario.node[36].veinsmobility 	totalDistance 	3409.6345897753
scalar RSUExampleScenario.node[36].veinsmobility 	totalCO2Emission 	709.81128444833
scalar RSUExampleScenario.node[37].veinsmobility 	startTime 	222.1
scalar RSUExampleScenario.node[37].veinsmobility 	totalTime 	226.8
scalar RSUExampleScenario.node[37].veinsmobility 	stopTime 	449
scalar RSUExampleScenario.node[37].veinsmobility 	minSpeed 	0.25431245716475
scalar RSUExampleScenario.node[37].veinsmobility 	maxSpeed 	18.999964741704
scalar RSUExampleScenario.node[37].veinsmobility 	totalDistance 	3409.8657997007
scalar RSUExampleScenario.node[37].veinsmobility 	totalCO2Emission 	709.63696659813
scalar RSUExampleScenario.node[38].veinsmobility 	startTime 	228.1
scalar RSUExampleScenario.node[38].veinsmobility 	totalTime 	227
scalar RSUExampleScenario.node[38].veinsmobility 	stopTime 	455.2
scalar RSUExampleScenario.node[38].veinsmobility 	minSpeed 	0.25716843173443
scalar RSUExampleScenario.node[38].veinsmobility 	maxSpeed 	18.999925661015
scalar RSUExampleScenario.node[38].veinsmobility 	totalDistance 	3409.3700003422
scalar RSUExampleScenario.node[38].veinsmobility 	totalCO2Emission 	708.45542411978
scalar RSUExampleScenario.node[39].veinsmobility 	startTime 	234.1
scalar RSUExampleScenario.node[39].veinsmobility 	totalTime 	226.8
scalar RSUExampleScenario.node[39].veinsmobility 	stopTime 	461
scalar RSUExampleScenario.node[39].veinsmobility 	minSpeed 	0.25959944269643
scalar RSUExampleScenario.node[39].veinsmobility 	maxSpeed 	18.999979693785
scalar RSUExampleScenario.node[39].veinsmobility 	totalDistance 	3409.4908140957
scalar RSUExampleScenario.node[39].veinsmobility 	totalCO2Emission 	704.30407637577
scalar RSUExampleScenario.node[40].veinsmobility 	startTime 	240.1
scalar RSUExampleScenario.node[40].veinsmobility 	totalTime 	226.9
scalar RSUExampleScenario.node[40].veinsmobility 	stopTime 	467.1
scalar RSUExampleScenario.node[40].veinsmobility 	minSpeed 	0.25097252877266
scalar RSUExampleScenario.node[40].veinsmobility 	maxSpeed 	18.999862174585
scalar RSUExampleScenario.node[40].veinsmobility 	totalDistance 	3409.9859524503
scalar RSUExampleScenario.node[40].veinsmobility 	totalCO2Emission 	706.68453274908
scalar RSUExampleScenario.node[41].veinsmobility 	startTime 	246.1
scalar RSUExampleScenario.node[41].veinsmobility 	totalTime 	226.8
scalar RSUExampleScenario.node[41].veinsmobility 	stopTime 	473
scalar RSUExampleScenario.node[41].veinsmobility 	minSpeed 	0.24784000362386
scalar RSUExampleScenario.node[41].veinsmobility 	maxSpeed 	18.999960532759
scalar RSUExampleScenario.node[41].veinsmobility 	totalDistance 	3409.5596208257
scalar RSUExampleScenario.node[41].veinsmobility 	totalCO2Emission 	710.0325486237
scalar RSUExampleScenario.node[42].veinsmobility 	startTime 	252.1
scalar RSUExampleScenario.node[42].veinsmobility 	totalTime 	227.1
scalar RSUExampleScenario.node[42].veinsmobility 	stopTime 	479.3
scalar RSUExampleScenario.node[42].veinsmobility 	minSpeed 	0.25212507502851
scalar RSUExampleScenario.node[42].veinsmobility 	maxSpeed 	18.999641949609
scalar RSUExampleScenario.node[42].veinsmobility 	totalDistance 	3409.5182719048
scalar RSUExampleScenario.node[42].veinsmobility 	totalCO2Emission 	710.43666861169
scalar RSUExampleScenario.node[43].veinsmobility 	startTime 	258.1
scalar RSUExampleScenario.node[43].veinsmobility 	totalTime 	226.8
scalar RSUExampleScenario.node[43].veinsmobility 	stopTime 	485
scalar RSUExampleScenario.node[43].veinsmobility 	minSpeed 	0.25441273410176
scalar RSUExampleScenario.node[43].veinsmobility 	maxSpeed 	18.999902343589
scalar RSUExampleScenario.node[43].veinsmobility 	totalDistance 	3409.9203521832
scalar RSUExampleScenario.node[43].veinsmobility 	totalCO2Emission 	707.57930811436
scalar RSUExampleScenario.node[44].veinsmobility 	startTime 	264.1
scalar RSUExampleScenario.node[44].veinsmobility 	totalTime 	226.8
scalar RSUExampleScenario.node[44].veinsmobility 	stopTime 	491
scalar RSUExampleScenario.node[44].veinsmobility 	minSpeed 	0.2499510217621
scalar RSUExampleScenario.node[44].veinsmobility 	maxSpeed 	18.999887338267
scalar RSUExampleScenario.node[44].veinsmobility 	totalDistance 	3409.2981406449
scalar RSUExampleScenario.node[44].veinsmobility 	totalCO2Emission 	707.13891418241
scalar RSUExampleScenario.node[45].veinsmobility 	startTime 	270.1
scalar RSUExampleScenario.node[45].veinsmobility 	totalTime 	226.9
scalar RSUExampleScenario.node[45].veinsmobility 	stopTime 	497.1
scalar RSUExampleScenario.node[45].veinsmobility 	minSpeed 	0.24997508861986
scalar RSUExampleScenario.node[45].veinsmobility 	maxSpeed 	18.999261422304
scalar RSUExampleScenario.node[45].veinsmobility 	totalDistance 	3409.4567840585
scalar RSUExampleScenario.node[45].veinsmobility 	totalCO2Emission 	709.61741513337
scalar RSUExampleScenario.node[46].veinsmobility 	startTime 	276.1
scalar RSUExampleScenario.node[46].veinsmobility 	totalTime 	226.9
scalar RSUExampleScenario.node[46].veinsmobility 	stopTime 	503.1
scalar RSUExampleScenario.node[46].veinsmobility 	minSpeed 	0.25530023716344
scalar RSUExampleScenario.node[46].veinsmobility 	maxSpeed 	18.999537049041
scalar RSUExampleScenario.node[46].veinsmobility 	totalDistance 	3409.1052716963
scalar RSUExampleScenario.node[46].veinsmobility 	totalCO2Emission 	707.42460094612
scalar RSUExampleScenario.node[47].veinsmobility 	startTime 	282.1
scalar RSUExampleScenario.node[47].veinsmobility 	totalTime 	227
scalar RSUExampleScenario.node[47].veinsmobility 	stopTime 	509.2
scalar RSUExampleScenario.node[47].veinsmobility 	minSpeed 	0.25782747857808
scalar RSUExampleScenario.node[47].veinsmobility 	maxSpeed 	18.999968389329
scalar RSUExampleScenario.node[47].veinsmobility 	totalDistance 	3409.4416118254
scalar RSUExampleScenario.node[47].veinsmobility 	totalCO2Emission 	709.02283579823
scalar RSUExampleScenario.node[48].veinsmobility 	startTime 	288.1
scalar RSUExampleScenario.node[48].veinsmobility 	totalTime 	227
scalar RSUExampleScenario.node[48].veinsmobility 	stopTime 	515.2
scalar RSUExampleScenario.node[48].veinsmobility 	minSpeed 	0.24909175441903
scalar RSUExampleScenario.node[48].veinsmobility 	maxSpeed 	18.999770369127
scalar RSUExampleScenario.node[48].veinsmobility 	totalDistance 	3409.2338163935
scalar RSUExampleScenario.node[48].veinsmobility 	totalCO2Emission 	708.07555038898
scalar RSUExampleScenario.node[49].veinsmobility 	startTime 	294.1
scalar RSUExampleScenario.node[49].veinsmobility 	totalTime 	226.9
scalar RSUExampleScenario.node[49].veinsmobility 	stopTime 	521.1
scalar RSUExampleScenario.node[49].veinsmobility 	minSpeed 	0.25573921061307
scalar RSUExampleScenario.node[49].veinsmobility 	maxSpeed 	18.99995447892
scalar RSUExampleScenario.node[49].veinsmobility 	totalDistance 	3409.2831610166
scalar RSUExampleScenario.node[49].veinsmobility 	totalCO2Emission 	707.1516406734
scalar RSUExampleScenario.node[50].veinsmobility 	startTime 	300.1
scalar RSUExampleScenario.node[50].veinsmobility 	totalTime 	226.8
scalar RSUExampleScenario.node[50].veinsmobility 	stopTime 	527
scalar RSUExampleScenario.node[50].veinsmobility 	minSpeed 	0.24909427695279
scalar RSUExampleScenario.node[50].veinsmobility 	maxSpeed 	18.999600358433
scalar RSUExampleScenario.node[50].veinsmobility 	totalDistance 	3409.6410145293
scalar RSUExampleScenario.node[50].veinsmobility 	totalCO2Emission 	707.18808170647
scalar RSUExampleScenario.node[51].veinsmobility 	startTime 	306.1
scalar RSUExampleScenario.node[51].veinsmobility 	totalTime 	226.9
scalar RSUExampleScenario.node[51].veinsmobility 	stopTime 	533.1
scalar RSUExampleScenario.node[51].veinsmobility 	minSpeed 	0.25536484649312
scalar RSUExampleScenario.node[51].veinsmobility 	maxSpeed 	18.99999566508
scalar RSUExampleScenario.node[51].veinsmobility 	totalDistance 	3409.802654619
scalar RSUExampleScenario.node[51].veinsmobility 	totalCO2Emission 	709.75703750212
scalar RSUExampleScenario.node[52].veinsmobility 	startTime 	312.1
scalar RSUExampleScenario.node[52].veinsmobility 	totalTime 	227
scalar RSUExampleScenario.node[52].veinsmobility 	stopTime 	539.2
scalar RSUExampleScenario.node[52].veinsmobility 	minSpeed 	0.25508526968467
scalar RSUExampleScenario.node[52].veinsmobility 	maxSpeed 	18.999877352072
scalar RSUExampleScenario.node[52].veinsmobility 	totalDistance 	3409.2418497041
scalar RSUExampleScenario.node[52].veinsmobility 	totalCO2Emission 	706.88084349881
scalar RSUExampleScenario.node[53].veinsmobility 	startTime 	318.1
scalar RSUExampleScenario.node[53].veinsmobility 	totalTime 	227
scalar RSUExampleScenario.node[53].veinsmobility 	stopTime 	545.2
scalar RSUExampleScenario.node[53].veinsmobility 	minSpeed 	0.25282228014711
scalar RSUExampleScenario.node[53].veinsmobility 	maxSpeed 	18.999738090956
scalar RSUExampleScenario.node[53].veinsmobility 	totalDistance 	3409.4105349164
scalar RSUExampleScenario.node[53].veinsmobility 	totalCO2Emission 	706.09813042628
scalar RSUExampleScenario.node[54].veinsmobility 	startTime 	324.1
scalar RSUExampleScenario.node[54].veinsmobility 	totalTime 	226.9
scalar RSUExampleScenario.node[54].veinsmobility 	stopTime 	551.1
scalar RSUExampleScenario.node[54].veinsmobility 	minSpeed 	0.2546282627671
scalar RSUExampleScenario.node[54].veinsmobility 	maxSpeed 	18.999876509956
scalar RSUExampleScenario.node[54].veinsmobility 	totalDistance 	3409.7974345657
scalar RSUExampleScenario.node[54].veinsmobility 	totalCO2Emission 	710.04903677486
scalar RSUExampleScenario.node[55].veinsmobility 	startTime 	330.1
scalar RSUExampleScenario.node[55].veinsmobility 	totalTime 	226.9
scalar RSUExampleScenario.node[55].veinsmobility 	stopTime 	557.1
scalar RSUExampleScenario.node[55].veinsmobility 	minSpeed 	0.25520318191429
scalar RSUExampleScenario.node[55].veinsmobility 	maxSpeed 	18.99986474134
scalar RSUExampleScenario.node[55].veinsmobility 	totalDistance 	3409.7283671795
scalar RSUExampleScenario.node[55].veinsmobility 	totalCO2Emission 	707.23408604051
scalar RSUExampleScenario.node[56].veinsmobility 	startTime 	336.1
scalar RSUExampleScenario.node[56].veinsmobility 	totalTime 	226.8
scalar RSUExampleScenario.node[56].veinsmobility 	stopTime 	563
scalar RSUExampleScenario.node[56].veinsmobility 	minSpeed 	0.25957010272006
scalar RSUExampleScenario.node[56].veinsmobility 	maxSpeed 	18.999866793298
scalar RSUExampleScenario.node[56].veinsmobility 	totalDistance 	3409.4079773516
scalar RSUExampleScenario.node[56].veinsmobility 	totalCO2Emission 	704.99092726417
scalar RSUExampleScenario.node[57].veinsmobility 	startTime 	342.1
scalar RSUExampleScenario.node[57].veinsmobility 	totalTime 	226.6
scalar RSUExampleScenario.node[57].veinsmobility 	stopTime 	568.8
scalar RSUExampleScenario.node[57].veinsmobility 	minSpeed 	0.24990232718387
scalar RSUExampleScenario.node[57].veinsmobility 	maxSpeed 	18.999926140127
scalar RSUExampleScenario.node[57].veinsmobility 	totalDistance 	3409.1608343619
scalar RSUExampleScenario.node[57].veinsmobility 	totalCO2Emission 	707.70066561579
scalar RSUExampleScenario.node[58].veinsmobility 	startTime 	348.1
scalar RSUExampleScenario.node[58].veinsmobility 	totalTime 	226.8
scalar RSUExampleScenario.node[58].veinsmobility 	stopTime 	575
scalar RSUExampleScenario.node[58].veinsmobility 	minSpeed 	0.24968896230403
scalar RSUExampleScenario.node[58].veinsmobility 	maxSpeed 	18.999992283965
scalar RSUExampleScenario.node[58].veinsmobility 	totalDistance 	3409.7949649297
scalar RSUExampleScenario.node[58].veinsmobility 	totalCO2Emission 	703.63573310526
scalar RSUExampleScenario.node[59].veinsmobility 	startTime 	354.1
scalar RSUExampleScenario.node[59].veinsmobility 	totalTime 	227
scalar RSUExampleScenario.node[59].veinsmobility 	stopTime 	581.2
scalar RSUExampleScenario.node[59].veinsmobility 	minSpeed 	0.25264853369398
scalar RSUExampleScenario.node[59].veinsmobility 	maxSpeed 	18.999316486001
scalar RSUExampleScenario.node[59].veinsmobility 	totalDistance 	3409.703446061
scalar RSUExampleScenario.node[59].veinsmobility 	totalCO2Emission 	709.35294790951
scalar RSUExampleScenario.node[60].veinsmobility 	startTime 	360.1
scalar RSUExampleScenario.node[60].veinsmobility 	totalTime 	226.6
scalar RSUExampleScenario.node[60].veinsmobility 	stopTime 	586.8
scalar RSUExampleScenario.node[60].veinsmobility 	minSpeed 	0.25362158072134
scalar RSUExampleScenario.node[60].veinsmobility 	maxSpeed 	18.999986546214
scalar RSUExampleScenario.node[60].veinsmobility 	totalDistance 	3409.5038888934
scalar RSUExampleScenario.node[60].veinsmobility 	totalCO2Emission 	705.64468704772
scalar RSUExampleScenario.node[61].veinsmobility 	startTime 	366.1
scalar RSUExampleScenario.node[61].veinsmobility 	totalTime 	226.9
scalar RSUExampleScenario.node[61].veinsmobility 	stopTime 	593.1
scalar RSUExampleScenario.node[61].veinsmobility 	minSpeed 	0.25427932452224
scalar RSUExampleScenario.node[61].veinsmobility 	maxSpeed 	18.999904553061
scalar RSUExampleScenario.node[61].veinsmobility 	totalDistance 	3409.0942217272
scalar RSUExampleScenario.node[61].veinsmobility 	totalCO2Emission 	707.49170820706
scalar RSUExampleScenario.node[62].veinsmobility 	startTime 	372.1
scalar RSUExampleScenario.node[62].veinsmobility 	totalTime 	226.8
scalar RSUExampleScenario.node[62].veinsmobility 	stopTime 	599
scalar RSUExampleScenario.node[62].veinsmobility 	minSpeed 	0.25150811691186
scalar RSUExampleScenario.node[62].veinsmobility 	maxSpeed 	18.999781910884
scalar RSUExampleScenario.node[62].veinsmobility 	totalDistance 	3409.4070314193
scalar RSUExampleScenario.node[62].veinsmobility 	totalCO2Emission 	704.54184829732
scalar RSUExampleScenario.node[63].veinsmobility 	startTime 	378.1
scalar RSUExampleScenario.node[63].veinsmobility 	totalTime 	226.8
scalar RSUExampleScenario.node[63].veinsmobility 	stopTime 	605
scalar RSUExampleScenario.node[63].veinsmobility 	minSpeed 	0.25192944334005
scalar RSUExampleScenario.node[63].veinsmobility 	maxSpeed 	18.999525288083
scalar RSUExampleScenario.node[63].veinsmobility 	totalDistance 	3409.5256629573
scalar RSUExampleScenario.node[63].veinsmobility 	totalCO2Emission 	705.0389365471
scalar RSUExampleScenario.node[64].veinsmobility 	startTime 	384.1
scalar RSUExampleScenario.node[64].veinsmobility 	totalTime 	226.7
scalar RSUExampleScenario.node[64].veinsmobility 	stopTime 	610.9
scalar RSUExampleScenario.node[64].veinsmobility 	minSpeed 	0.25453694175114
scalar RSUExampleScenario.node[64].veinsmobility 	maxSpeed 	18.999636713793
scalar RSUExampleScenario.node[64].veinsmobility 	totalDistance 	3409.5733439553
scalar RSUExampleScenario.node[64].veinsmobility 	totalCO2Emission 	704.88208865132
scalar RSUExampleScenario.node[65].veinsmobility 	startTime 	390.1
scalar RSUExampleScenario.node[65].veinsmobility 	totalTime 	226.8
scalar RSUExampleScenario.node[65].veinsmobility 	stopTime 	617
scalar RSUExampleScenario.node[65].veinsmobility 	minSpeed 	0.25095263353013
scalar RSUExampleScenario.node[65].veinsmobility 	maxSpeed 	18.99961583521
scalar RSUExampleScenario.node[65].veinsmobility 	totalDistance 	3409.3969999325
scalar RSUExampleScenario.node[65].veinsmobility 	totalCO2Emission 	701.86781363813
scalar RSUExampleScenario.node[66].veinsmobility 	startTime 	396.1
scalar RSUExampleScenario.node[66].veinsmobility 	totalTime 	226.8
scalar RSUExampleScenario.node[66].veinsmobility 	stopTime 	623
scalar RSUExampleScenario.node[66].veinsmobility 	minSpeed 	0.24785157009796
scalar RSUExampleScenario.node[66].veinsmobility 	maxSpeed 	18.999478950009
scalar RSUExampleScenario.node[66].veinsmobility 	totalDistance 	3409.5679250077
scalar RSUExampleScenario.node[66].veinsmobility 	totalCO2Emission 	709.9064448554
scalar RSUExampleScenario.node[67].veinsmobility 	startTime 	402.1
scalar RSUExampleScenario.node[67].veinsmobility 	totalTime 	226.8
scalar RSUExampleScenario.node[67].veinsmobility 	stopTime 	629
scalar RSUExampleScenario.node[67].veinsmobility 	minSpeed 	0.25187822303479
scalar RSUExampleScenario.node[67].veinsmobility 	maxSpeed 	18.999966849294
scalar RSUExampleScenario.node[67].veinsmobility 	totalDistance 	3409.5423339839
scalar RSUExampleScenario.node[67].veinsmobility 	totalCO2Emission 	707.30883984037
scalar RSUExampleScenario.node[68].veinsmobility 	startTime 	408.1
scalar RSUExampleScenario.node[68].veinsmobility 	totalTime 	226.8
scalar RSUExampleScenario.node[68].veinsmobility 	stopTime 	635
scalar RSUExampleScenario.node[68].veinsmobility 	minSpeed 	0.25237871309812
scalar RSUExampleScenario.node[68].veinsmobility 	maxSpeed 	18.999801705934
scalar RSUExampleScenario.node[68].veinsmobility 	totalDistance 	3409.1762622567
scalar RSUExampleScenario.node[68].veinsmobility 	totalCO2Emission 	705.46944597689
scalar RSUExampleScenario.node[69].veinsmobility 	startTime 	414.1
scalar RSUExampleScenario.node[69].veinsmobility 	totalTime 	226.9
scalar RSUExampleScenario.node[69].veinsmobility 	stopTime 	641.1
scalar RSUExampleScenario.node[69].veinsmobility 	minSpeed 	0.25387690914888
scalar RSUExampleScenario.node[69].veinsmobility 	maxSpeed 	18.999942027428
scalar RSUExampleScenario.node[69].veinsmobility 	totalDistance 	3409.7057849108
scalar RSUExampleScenario.node[69].veinsmobility 	totalCO2Emission 	711.63449715384
scalar RSUExampleScenario.node[70].veinsmobility 	startTime 	420.1
scalar RSUExampleScenario.node[70].veinsmobility 	totalTime 	226.8
scalar RSUExampleScenario.node[70].veinsmobility 	stopTime 	647
scalar RSUExampleScenario.node[70].veinsmobility 	minSpeed 	0.25144737392664
scalar RSUExampleScenario.node[70].veinsmobility 	maxSpeed 	18.999956675861
scalar RSUExampleScenario.node[70].veinsmobility 	totalDistance 	3409.3922759152
scalar RSUExampleScenario.node[70].veinsmobility 	totalCO2Emission 	706.61095789303
scalar RSUExampleScenario.node[71].veinsmobility 	startTime 	426.1
scalar RSUExampleScenario.node[71].veinsmobility 	totalTime 	226.8
scalar RSUExampleScenario.node[71].veinsmobility 	stopTime 	653
scalar RSUExampleScenario.node[71].veinsmobility 	minSpeed 	0.25605870023766
scalar RSUExampleScenario.node[71].veinsmobility 	maxSpeed 	18.99992306605
scalar RSUExampleScenario.node[71].veinsmobility 	totalDistance 	3409.3344693142
scalar RSUExampleScenario.node[71].veinsmobility 	totalCO2Emission 	705.5716550626
scalar RSUExampleScenario.node[72].veinsmobility 	startTime 	432.1
scalar RSUExampleScenario.node[72].veinsmobility 	totalTime 	227
scalar RSUExampleScenario.node[72].veinsmobility 	stopTime 	659.2
scalar RSUExampleScenario.node[72].veinsmobility 	minSpeed 	0.25124774152809
scalar RSUExampleScenario.node[72].veinsmobility 	maxSpeed 	18.99975415027
scalar RSUExampleScenario.node[72].veinsmobility 	totalDistance 	3409.2293050424
scalar RSUExampleScenario.node[72].veinsmobility 	totalCO2Emission 	706.32007940831
scalar RSUExampleScenario.node[73].veinsmobility 	startTime 	438.1
scalar RSUExampleScenario.node[73].veinsmobility 	totalTime 	226.7
scalar RSUExampleScenario.node[73].veinsmobility 	stopTime 	664.9
scalar RSUExampleScenario.node[73].veinsmobility 	minSpeed 	0.24932293464965
scalar RSUExampleScenario.node[73].veinsmobility 	maxSpeed 	18.999816857239
scalar RSUExampleScenario.node[73].veinsmobility 	totalDistance 	3409.5856734364
scalar RSUExampleScenario.node[73].veinsmobility 	totalCO2Emission 	706.23271152409
scalar RSUExampleScenario.node[74].veinsmobility 	startTime 	444.1
scalar RSUExampleScenario.node[74].veinsmobility 	totalTime 	226.6
scalar RSUExampleScenario.node[74].veinsmobility 	stopTime 	670.8
scalar RSUExampleScenario.node[74].veinsmobility 	minSpeed 	0.25563714227453
scalar RSUExampleScenario.node[74].veinsmobility 	maxSpeed 	18.999861965342
scalar RSUExampleScenario.node[74].veinsmobility 	totalDistance 	3409.4131749017
scalar RSUExampleScenario.node[74].veinsmobility 	totalCO2Emission 	709.58957086774
scalar RSUExampleScenario.node[75].veinsmobility 	startTime 	450.1
scalar RSUExampleScenario.node[75].veinsmobility 	totalTime 	226.9
scalar RSUExampleScenario.node[75].veinsmobility 	stopTime 	677.1
scalar RSUExampleScenario.node[75].veinsmobility 	minSpeed 	0.25972589659342
scalar RSUExampleScenario.node[75].veinsmobility 	maxSpeed 	18.999916574233
scalar RSUExampleScenario.node[75].veinsmobility 	totalDistance 	3409.2522812033
scalar RSUExampleScenario.node[75].veinsmobility 	totalCO2Emission 	704.92252190209
scalar RSUExampleScenario.node[76].veinsmobility 	startTime 	456.1
scalar RSUExampleScenario.node[76].veinsmobility 	totalTime 	226.7
scalar RSUExampleScenario.node[76].veinsmobility 	stopTime 	682.9
scalar RSUExampleScenario.node[76].veinsmobility 	minSpeed 	0.25477390862093
scalar RSUExampleScenario.node[76].veinsmobility 	maxSpeed 	18.999970625679
scalar RSUExampleScenario.node[76].veinsmobility 	totalDistance 	3409.3615099334
scalar RSUExampleScenario.node[76].veinsmobility 	totalCO2Emission 	706.63880130749
scalar RSUExampleScenario.node[77].veinsmobility 	startTime 	462.1
scalar RSUExampleScenario.node[77].veinsmobility 	totalTime 	226.9
scalar RSUExampleScenario.node[77].veinsmobility 	stopTime 	689.1
scalar RSUExampleScenario.node[77].veinsmobility 	minSpeed 	0.24759442012501
scalar RSUExampleScenario.node[77].veinsmobility 	maxSpeed 	18.999881692228
scalar RSUExampleScenario.node[77].veinsmobility 	totalDistance 	3409.6674943062
scalar RSUExampleScenario.node[77].veinsmobility 	totalCO2Emission 	708.46529066076
scalar RSUExampleScenario.node[78].veinsmobility 	startTime 	468.1
scalar RSUExampleScenario.node[78].veinsmobility 	totalTime 	227.1
scalar RSUExampleScenario.node[78].veinsmobility 	stopTime 	695.3
scalar RSUExampleScenario.node[78].veinsmobility 	minSpeed 	0.25308204075787
scalar RSUExampleScenario.node[78].veinsmobility 	maxSpeed 	18.999694402753
scalar RSUExampleScenario.node[78].veinsmobility 	totalDistance 	3409.4791839013
scalar RSUExampleScenario.node[78].veinsmobility 	totalCO2Emission 	703.23700255401
scalar RSUExampleScenario.node[79].veinsmobility 	startTime 	474.1
scalar RSUExampleScenario.node[79].veinsmobility 	totalTime 	226.8
scalar RSUExampleScenario.node[79].veinsmobility 	stopTime 	701
scalar RSUExampleScenario.node[79].veinsmobility 	minSpeed 	0.25769476714474
scalar RSUExampleScenario.node[79].veinsmobility 	maxSpeed 	18.9999877046
scalar RSUExampleScenario.node[79].veinsmobility 	totalDistance 	3409.4083917321
scalar RSUExampleScenario.node[79].veinsmobility 	totalCO2Emission 	706.01993856839
scalar RSUExampleScenario.node[80].veinsmobility 	startTime 	480.1
scalar RSUExampleScenario.node[80].veinsmobility 	totalTime 	226.9
scalar RSUExampleScenario.node[80].veinsmobility 	stopTime 	707.1
scalar RSUExampleScenario.node[80].veinsmobility 	minSpeed 	0.25398265762627
scalar RSUExampleScenario.node[80].veinsmobility 	maxSpeed 	18.999948984827
scalar RSUExampleScenario.node[80].veinsmobility 	totalDistance 	3409.5428558681
scalar RSUExampleScenario.node[80].veinsmobility 	totalCO2Emission 	704.50058305097
scalar RSUExampleScenario.node[81].veinsmobility 	startTime 	486.1
scalar RSUExampleScenario.node[81].veinsmobility 	totalTime 	226.9
scalar RSUExampleScenario.node[81].veinsmobility 	stopTime 	713.1
scalar RSUExampleScenario.node[81].veinsmobility 	minSpeed 	0.25511435188679
scalar RSUExampleScenario.node[81].veinsmobility 	maxSpeed 	18.999944956915
scalar RSUExampleScenario.node[81].veinsmobility 	totalDistance 	3409.3645028486
scalar RSUExampleScenario.node[81].veinsmobility 	totalCO2Emission 	707.72331433227
scalar RSUExampleScenario.node[82].veinsmobility 	startTime 	492.1
scalar RSUExampleScenario.node[82].veinsmobility 	totalTime 	227.1
scalar RSUExampleScenario.node[82].veinsmobility 	stopTime 	719.3
scalar RSUExampleScenario.node[82].veinsmobility 	minSpeed 	0.25491998141678
scalar RSUExampleScenario.node[82].veinsmobility 	maxSpeed 	18.999735132805
scalar RSUExampleScenario.node[82].veinsmobility 	totalDistance 	3409.5721225189
scalar RSUExampleScenario.node[82].veinsmobility 	totalCO2Emission 	707.05202462603
scalar RSUExampleScenario.node[83].veinsmobility 	startTime 	498.1
scalar RSUExampleScenario.node[83].veinsmobility 	totalTime 	227.2
scalar RSUExampleScenario.node[83].veinsmobility 	stopTime 	725.4
scalar RSUExampleScenario.node[83].veinsmobility 	minSpeed 	0.25257477904134
scalar RSUExampleScenario.node[83].veinsmobility 	maxSpeed 	18.999650607584
scalar RSUExampleScenario.node[83].veinsmobility 	totalDistance 	3409.6944645212
scalar RSUExampleScenario.node[83].veinsmobility 	totalCO2Emission 	709.72406507081
scalar RSUExampleScenario.node[84].veinsmobility 	startTime 	504.1
scalar RSUExampleScenario.node[84].veinsmobility 	totalTime 	226.6
scalar RSUExampleScenario.node[84].veinsmobility 	stopTime 	730.8
scalar RSUExampleScenario.node[84].veinsmobility 	minSpeed 	0.25047387177777
scalar RSUExampleScenario.node[84].veinsmobility 	maxSpeed 	18.999937513019
scalar RSUExampleScenario.node[84].veinsmobility 	totalDistance 	3409.6638711913
scalar RSUExampleScenario.node[84].veinsmobility 	totalCO2Emission 	706.89223838854
scalar RSUExampleScenario.node[85].veinsmobility 	startTime 	510.1
scalar RSUExampleScenario.node[85].veinsmobility 	totalTime 	226.8
scalar RSUExampleScenario.node[85].veinsmobility 	stopTime 	737
scalar RSUExampleScenario.node[85].veinsmobility 	minSpeed 	0.2549874945085
scalar RSUExampleScenario.node[85].veinsmobility 	maxSpeed 	18.99981690482
scalar RSUExampleScenario.node[85].veinsmobility 	totalDistance 	3409.1680624985
scalar RSUExampleScenario.node[85].veinsmobility 	totalCO2Emission 	706.7982683668
scalar RSUExampleScenario.node[86].veinsmobility 	startTime 	516.1
scalar RSUExampleScenario.node[86].veinsmobility 	totalTime 	226.8
scalar RSUExampleScenario.node[86].veinsmobility 	stopTime 	743
scalar RSUExampleScenario.node[86].veinsmobility 	minSpeed 	0.25995833706181
scalar RSUExampleScenario.node[86].veinsmobility 	maxSpeed 	18.999667396538
scalar RSUExampleScenario.node[86].veinsmobility 	totalDistance 	3409.2112046996
scalar RSUExampleScenario.node[86].veinsmobility 	totalCO2Emission 	708.69010521666
scalar RSUExampleScenario.node[87].veinsmobility 	startTime 	522.1
scalar RSUExampleScenario.node[87].veinsmobility 	totalTime 	226.8
scalar RSUExampleScenario.node[87].veinsmobility 	stopTime 	749
scalar RSUExampleScenario.node[87].veinsmobility 	minSpeed 	0.25257342006336
scalar RSUExampleScenario.node[87].veinsmobility 	maxSpeed 	18.999914875473
scalar RSUExampleScenario.node[87].veinsmobility 	totalDistance 	3409.4906280165
scalar RSUExampleScenario.node[87].veinsmobility 	totalCO2Emission 	709.22716220065
scalar RSUExampleScenario.node[88].veinsmobility 	startTime 	528.1
scalar RSUExampleScenario.node[88].veinsmobility 	totalTime 	226.9
scalar RSUExampleScenario.node[88].veinsmobility 	stopTime 	755.1
scalar RSUExampleScenario.node[88].veinsmobility 	minSpeed 	0.25164249263029
scalar RSUExampleScenario.node[88].veinsmobility 	maxSpeed 	18.999982307183
scalar RSUExampleScenario.node[88].veinsmobility 	totalDistance 	3409.2101505661
scalar RSUExampleScenario.node[88].veinsmobility 	totalCO2Emission 	703.37968342469
scalar RSUExampleScenario.node[89].veinsmobility 	startTime 	534.1
scalar RSUExampleScenario.node[89].veinsmobility 	totalTime 	227.1
scalar RSUExampleScenario.node[89].veinsmobility 	stopTime 	761.3
scalar RSUExampleScenario.node[89].veinsmobility 	minSpeed 	0.24979030329385
scalar RSUExampleScenario.node[89].veinsmobility 	maxSpeed 	18.999687762018
scalar RSUExampleScenario.node[89].veinsmobility 	totalDistance 	3409.5025078632
scalar RSUExampleScenario.node[89].veinsmobility 	totalCO2Emission 	703.33408034176
scalar RSUExampleScenario.node[90].veinsmobility 	startTime 	540.1
scalar RSUExampleScenario.node[90].veinsmobility 	totalTime 	226.6
scalar RSUExampleScenario.node[90].veinsmobility 	stopTime 	766.8
scalar RSUExampleScenario.node[90].veinsmobility 	minSpeed 	0.25642675937316
scalar RSUExampleScenario.node[90].veinsmobility 	maxSpeed 	18.999989268668
scalar RSUExampleScenario.node[90].veinsmobility 	totalDistance 	3409.3243959477
scalar RSUExampleScenario.node[90].veinsmobility 	totalCO2Emission 	709.04976061115
scalar RSUExampleScenario.node[91].veinsmobility 	startTime 	546.1
scalar RSUExampleScenario.node[91].veinsmobility 	totalTime 	227
scalar RSUExampleScenario.node[91].veinsmobility 	stopTime 	773.2
scalar RSUExampleScenario.node[91].veinsmobility 	minSpeed 	0.25997496946412
scalar RSUExampleScenario.node[91].veinsmobility 	maxSpeed 	18.99997922675
scalar RSUExampleScenario.node[91].veinsmobility 	totalDistance 	3409.6871810002
scalar RSUExampleScenario.node[91].veinsmobility 	totalCO2Emission 	708.78597831117
scalar RSUExampleScenario.node[92].veinsmobility 	startTime 	552.1
scalar RSUExampleScenario.node[92].veinsmobility 	totalTime 	226.9
scalar RSUExampleScenario.node[92].veinsmobility 	stopTime 	779.1
scalar RSUExampleScenario.node[92].veinsmobility 	minSpeed 	0.25956475335034
scalar RSUExampleScenario.node[92].veinsmobility 	maxSpeed 	18.99951674894
scalar RSUExampleScenario.node[92].veinsmobility 	totalDistance 	3409.6483694338
scalar RSUExampleScenario.node[92].veinsmobility 	totalCO2Emission 	707.41380037196
scalar RSUExampleScenario.node[93].veinsmobility 	startTime 	558.1
scalar RSUExampleScenario.node[93].veinsmobility 	totalTime 	226.9
scalar RSUExampleScenario.node[93].veinsmobility 	stopTime 	785.1
scalar RSUExampleScenario.node[93].veinsmobility 	minSpeed 	0.25798109360458
scalar RSUExampleScenario.node[93].veinsmobility 	maxSpeed 	18.999986439671
scalar RSUExampleScenario.node[93].veinsmobility 	totalDistance 	3409.6926944403
scalar RSUExampleScenario.node[93].veinsmobility 	totalCO2Emission 	705.39379919016
scalar RSUExampleScenario.node[94].veinsmobility 	startTime 	564.1
scalar RSUExampleScenario.node[94].veinsmobility 	totalTime 	226.7
scalar RSUExampleScenario.node[94].veinsmobility 	stopTime 	790.9
scalar RSUExampleScenario.node[94].veinsmobility 	minSpeed 	0.25429950520699
scalar RSUExampleScenario.node[94].veinsmobility 	maxSpeed 	18.999962426445
scalar RSUExampleScenario.node[94].veinsmobility 	totalDistance 	3409.4087727726
scalar RSUExampleScenario.node[94].veinsmobility 	totalCO2Emission 	703.44724614406
scalar RSUExampleScenario.node[95].veinsmobility 	startTime 	570.1
scalar RSUExampleScenario.node[95].veinsmobility 	totalTime 	226.8
scalar RSUExampleScenario.node[95].veinsmobility 	stopTime 	797
scalar RSUExampleScenario.node[95].veinsmobility 	minSpeed 	0.25399436573032
scalar RSUExampleScenario.node[95].veinsmobility 	maxSpeed 	18.99975286043
scalar RSUExampleScenario.node[95].veinsmobility 	totalDistance 	3409.7903458789
scalar RSUExampleScenario.node[95].veinsmobility 	totalCO2Emission 	711.14204847741
scalar RSUExampleScenario.node[96].veinsmobility 	startTime 	576.1
scalar RSUExampleScenario.node[96].veinsmobility 	totalTime 	226.9
scalar RSUExampleScenario.node[96].veinsmobility 	stopTime 	803.1
scalar RSUExampleScenario.node[96].veinsmobility 	minSpeed 	0.25094684921252
scalar RSUExampleScenario.node[96].veinsmobility 	maxSpeed 	18.999976759183
scalar RSUExampleScenario.node[96].veinsmobility 	totalDistance 	3409.4149601427
scalar RSUExampleScenario.node[96].veinsmobility 	totalCO2Emission 	702.25108334286
scalar RSUExampleScenario.node[97].veinsmobility 	startTime 	582.1
scalar RSUExampleScenario.node[97].veinsmobility 	totalTime 	226.8
scalar RSUExampleScenario.node[97].veinsmobility 	stopTime 	809
scalar RSUExampleScenario.node[97].veinsmobility 	minSpeed 	0.25544575891853
scalar RSUExampleScenario.node[97].veinsmobility 	maxSpeed 	18.999921686284
scalar RSUExampleScenario.node[97].veinsmobility 	totalDistance 	3409.5484795052
scalar RSUExampleScenario.node[97].veinsmobility 	totalCO2Emission 	708.73430395082
scalar RSUExampleScenario.node[98].veinsmobility 	startTime 	588.1
scalar RSUExampleScenario.node[98].veinsmobility 	totalTime 	226.6
scalar RSUExampleScenario.node[98].veinsmobility 	stopTime 	814.8
scalar RSUExampleScenario.node[98].veinsmobility 	minSpeed 	0.25581495664478
scalar RSUExampleScenario.node[98].veinsmobility 	maxSpeed 	18.999947918183
scalar RSUExampleScenario.node[98].veinsmobility 	totalDistance 	3409.8580104384
scalar RSUExampleScenario.node[98].veinsmobility 	totalCO2Emission 	706.50181668271
scalar RSUExampleScenario.node[99].veinsmobility 	startTime 	594.1
scalar RSUExampleScenario.node[99].veinsmobility 	totalTime 	226.8
scalar RSUExampleScenario.node[99].veinsmobility 	stopTime 	821
scalar RSUExampleScenario.node[99].veinsmobility 	minSpeed 	0.25666152248252
scalar RSUExampleScenario.node[99].veinsmobility 	maxSpeed 	18.999968864839
scalar RSUExampleScenario.node[99].veinsmobility 	totalDistance 	3409.151602976
scalar RSUExampleScenario.node[99].veinsmobility 	totalCO2Emission 	702.19681791366
scalar RSUExampleScenario.node[100].veinsmobility 	startTime 	600.1
scalar RSUExampleScenario.node[100].veinsmobility 	totalTime 	226.9
scalar RSUExampleScenario.node[100].veinsmobility 	stopTime 	827.1
scalar RSUExampleScenario.node[100].veinsmobility 	minSpeed 	0.25069936927618
scalar RSUExampleScenario.node[100].veinsmobility 	maxSpeed 	18.99997189645
scalar RSUExampleScenario.node[100].veinsmobility 	totalDistance 	3409.3902505024
scalar RSUExampleScenario.node[100].veinsmobility 	totalCO2Emission 	707.96965602047
scalar RSUExampleScenario.node[101].veinsmobility 	startTime 	606.1
scalar RSUExampleScenario.node[101].veinsmobility 	totalTime 	226.7
scalar RSUExampleScenario.node[101].veinsmobility 	stopTime 	832.9
scalar RSUExampleScenario.node[101].veinsmobility 	minSpeed 	0.25112395424349
scalar RSUExampleScenario.node[101].veinsmobility 	maxSpeed 	18.999818222779
scalar RSUExampleScenario.node[101].veinsmobility 	totalDistance 	3409.3954863035
scalar RSUExampleScenario.node[101].veinsmobility 	totalCO2Emission 	707.24563277939
scalar RSUExampleScenario.node[102].veinsmobility 	startTime 	612.1
scalar RSUExampleScenario.node[102].veinsmobility 	totalTime 	227
scalar RSUExampleScenario.node[102].veinsmobility 	stopTime 	839.2
scalar RSUExampleScenario.node[102].veinsmobility 	minSpeed 	0.25035137464781
scalar RSUExampleScenario.node[102].veinsmobility 	maxSpeed 	18.999805096099
scalar RSUExampleScenario.node[102].veinsmobility 	totalDistance 	3409.9598688503
scalar RSUExampleScenario.node[102].veinsmobility 	totalCO2Emission 	711.05359915539
scalar RSUExampleScenario.node[103].veinsmobility 	startTime 	618.1
scalar RSUExampleScenario.node[103].veinsmobility 	totalTime 	226.8
scalar RSUExampleScenario.node[103].veinsmobility 	stopTime 	845
scalar RSUExampleScenario.node[103].veinsmobility 	minSpeed 	0.2528339093274
scalar RSUExampleScenario.node[103].veinsmobility 	maxSpeed 	18.999797324885
scalar RSUExampleScenario.node[103].veinsmobility 	totalDistance 	3409.1652284906
scalar RSUExampleScenario.node[103].veinsmobility 	totalCO2Emission 	705.88337604939
scalar RSUExampleScenario.node[104].veinsmobility 	startTime 	624.1
scalar RSUExampleScenario.node[104].veinsmobility 	totalTime 	226.9
scalar RSUExampleScenario.node[104].veinsmobility 	stopTime 	851.1
scalar RSUExampleScenario.node[104].veinsmobility 	minSpeed 	0.25718047287408
scalar RSUExampleScenario.node[104].veinsmobility 	maxSpeed 	18.999999011569
scalar RSUExampleScenario.node[104].veinsmobility 	totalDistance 	3409.3044873262
scalar RSUExampleScenario.node[104].veinsmobility 	totalCO2Emission 	705.02611981556
scalar RSUExampleScenario.node[105].veinsmobility 	startTime 	630.1
scalar RSUExampleScenario.node[105].veinsmobility 	totalTime 	227
scalar RSUExampleScenario.node[105].veinsmobility 	stopTime 	857.2
scalar RSUExampleScenario.node[105].veinsmobility 	minSpeed 	0.25884630030091
scalar RSUExampleScenario.node[105].veinsmobility 	maxSpeed 	18.999511509098
scalar RSUExampleScenario.node[105].veinsmobility 	totalDistance 	3409.1851100907
scalar RSUExampleScenario.node[105].veinsmobility 	totalCO2Emission 	704.84629958424
scalar RSUExampleScenario.node[106].veinsmobility 	startTime 	636.1
scalar RSUExampleScenario.node[106].veinsmobility 	totalTime 	227.3
scalar RSUExampleScenario.node[106].veinsmobility 	stopTime 	863.5
scalar RSUExampleScenario.node[106].veinsmobility 	minSpeed 	0.25725023853639
scalar RSUExampleScenario.node[106].veinsmobility 	maxSpeed 	18.999998639727
scalar RSUExampleScenario.node[106].veinsmobility 	totalDistance 	3409.9259981933
scalar RSUExampleScenario.node[106].veinsmobility 	totalCO2Emission 	708.97806223223
scalar RSUExampleScenario.node[107].veinsmobility 	startTime 	642.1
scalar RSUExampleScenario.node[107].veinsmobility 	totalTime 	226.9
scalar RSUExampleScenario.node[107].veinsmobility 	stopTime 	869.1
scalar RSUExampleScenario.node[107].veinsmobility 	minSpeed 	0.25130537181743
scalar RSUExampleScenario.node[107].veinsmobility 	maxSpeed 	18.99988738721
scalar RSUExampleScenario.node[107].veinsmobility 	totalDistance 	3409.5510711228
scalar RSUExampleScenario.node[107].veinsmobility 	totalCO2Emission 	711.85865467465
scalar RSUExampleScenario.node[108].veinsmobility 	startTime 	648.1
scalar RSUExampleScenario.node[108].veinsmobility 	totalTime 	226.8
scalar RSUExampleScenario.node[108].veinsmobility 	stopTime 	875
scalar RSUExampleScenario.node[108].veinsmobility 	minSpeed 	0.24810270396713
scalar RSUExampleScenario.node[108].veinsmobility 	maxSpeed 	18.999728869179
scalar RSUExampleScenario.node[108].veinsmobility 	totalDistance 	3409.5406914718
scalar RSUExampleScenario.node[108].veinsmobility 	totalCO2Emission 	703.61671120841
scalar RSUExampleScenario.node[109].veinsmobility 	startTime 	654.1
scalar RSUExampleScenario.node[109].veinsmobility 	totalTime 	226.8
scalar RSUExampleScenario.node[109].veinsmobility 	stopTime 	881
scalar RSUExampleScenario.node[109].veinsmobility 	minSpeed 	0.25433246597578
scalar RSUExampleScenario.node[109].veinsmobility 	maxSpeed 	18.999693078438
scalar RSUExampleScenario.node[109].veinsmobility 	totalDistance 	3409.6110447541
scalar RSUExampleScenario.node[109].veinsmobility 	totalCO2Emission 	711.59585155937
scalar RSUExampleScenario.node[110].veinsmobility 	startTime 	660.1
scalar RSUExampleScenario.node[110].veinsmobility 	totalTime 	227
scalar RSUExampleScenario.node[110].veinsmobility 	stopTime 	887.2
scalar RSUExampleScenario.node[110].veinsmobility 	minSpeed 	0.24879714874551
scalar RSUExampleScenario.node[110].veinsmobility 	maxSpeed 	18.999987829456
scalar RSUExampleScenario.node[110].veinsmobility 	totalDistance 	3409.5461119898
scalar RSUExampleScenario.node[110].veinsmobility 	totalCO2Emission 	701.87201081313
scalar RSUExampleScenario.node[111].veinsmobility 	startTime 	666.1
scalar RSUExampleScenario.node[111].veinsmobility 	totalTime 	227.1
scalar RSUExampleScenario.node[111].veinsmobility 	stopTime 	893.3
scalar RSUExampleScenario.node[111].veinsmobility 	minSpeed 	0.25026085513411
scalar RSUExampleScenario.node[111].veinsmobility 	maxSpeed 	18.999990107485
scalar RSUExampleScenario.node[111].veinsmobility 	totalDistance 	3409.5007200474
scalar RSUExampleScenario.node[111].veinsmobility 	totalCO2Emission 	710.18296410934
scalar RSUExampleScenario.node[112].veinsmobility 	startTime 	672.1
scalar RSUExampleScenario.node[112].veinsmobility 	totalTime 	226.8
scalar RSUExampleScenario.node[112].veinsmobility 	stopTime 	899
scalar RSUExampleScenario.node[112].veinsmobility 	minSpeed 	0.25155367054511
scalar RSUExampleScenario.node[112].veinsmobility 	maxSpeed 	18.999910212872
scalar RSUExampleScenario.node[112].veinsmobility 	totalDistance 	3409.3046104213
scalar RSUExampleScenario.node[112].veinsmobility 	totalCO2Emission 	708.02442187342
scalar RSUExampleScenario.node[113].veinsmobility 	startTime 	678.1
scalar RSUExampleScenario.node[113].veinsmobility 	totalTime 	227
scalar RSUExampleScenario.node[113].veinsmobility 	stopTime 	905.2
scalar RSUExampleScenario.node[113].veinsmobility 	minSpeed 	0.25855825051526
scalar RSUExampleScenario.node[113].veinsmobility 	maxSpeed 	18.999223796991
scalar RSUExampleScenario.node[113].veinsmobility 	totalDistance 	3409.7955745084
scalar RSUExampleScenario.node[113].veinsmobility 	totalCO2Emission 	708.17691416415
scalar RSUExampleScenario.node[114].veinsmobility 	startTime 	684.1
scalar RSUExampleScenario.node[114].veinsmobility 	totalTime 	227.2
scalar RSUExampleScenario.node[114].veinsmobility 	stopTime 	911.4
scalar RSUExampleScenario.node[114].veinsmobility 	minSpeed 	0.24906080592633
scalar RSUExampleScenario.node[114].veinsmobility 	maxSpeed 	18.999858121732
scalar RSUExampleScenario.node[114].veinsmobility 	totalDistance 	3409.453395187
scalar RSUExampleScenario.node[114].veinsmobility 	totalCO2Emission 	706.92383950898
scalar RSUExampleScenario.node[115].veinsmobility 	startTime 	690.1
scalar RSUExampleScenario.node[115].veinsmobility 	totalTime 	226.8
scalar RSUExampleScenario.node[115].veinsmobility 	stopTime 	917
scalar RSUExampleScenario.node[115].veinsmobility 	minSpeed 	0.25956646525301
scalar RSUExampleScenario.node[115].veinsmobility 	maxSpeed 	18.999873098482
scalar RSUExampleScenario.node[115].veinsmobility 	totalDistance 	3409.0659589446
scalar RSUExampleScenario.node[115].veinsmobility 	totalCO2Emission 	707.18928718552
scalar RSUExampleScenario.node[116].veinsmobility 	startTime 	696.1
scalar RSUExampleScenario.node[116].veinsmobility 	totalTime 	227.1
scalar RSUExampleScenario.node[116].veinsmobility 	stopTime 	923.3
scalar RSUExampleScenario.node[116].veinsmobility 	minSpeed 	0.2503634373988
scalar RSUExampleScenario.node[116].veinsmobility 	maxSpeed 	18.999823494402
scalar RSUExampleScenario.node[116].veinsmobility 	totalDistance 	3409.3182773258
scalar RSUExampleScenario.node[116].veinsmobility 	totalCO2Emission 	711.18539198123
scalar RSUExampleScenario.node[117].veinsmobility 	startTime 	702.1
scalar RSUExampleScenario.node[117].veinsmobility 	totalTime 	227
scalar RSUExampleScenario.node[117].veinsmobility 	stopTime 	929.2
scalar RSUExampleScenario.node[117].veinsmobility 	minSpeed 	0.25597047378705
scalar RSUExampleScenario.node[117].veinsmobility 	maxSpeed 	18.999709957924
scalar RSUExampleScenario.node[117].veinsmobility 	totalDistance 	3409.7551947083
scalar RSUExampleScenario.node[117].veinsmobility 	totalCO2Emission 	707.56689447735
scalar RSUExampleScenario.node[118].veinsmobility 	startTime 	708.1
scalar RSUExampleScenario.node[118].veinsmobility 	totalTime 	227
scalar RSUExampleScenario.node[118].veinsmobility 	stopTime 	935.2
scalar RSUExampleScenario.node[118].veinsmobility 	minSpeed 	0.25532870481047
scalar RSUExampleScenario.node[118].veinsmobility 	maxSpeed 	18.999777984915
scalar RSUExampleScenario.node[118].veinsmobility 	totalDistance 	3409.2178430088
scalar RSUExampleScenario.node[118].veinsmobility 	totalCO2Emission 	706.38377513161
scalar RSUExampleScenario.node[119].veinsmobility 	startTime 	714.1
scalar RSUExampleScenario.node[119].veinsmobility 	totalTime 	226.7
scalar RSUExampleScenario.node[119].veinsmobility 	stopTime 	940.9
scalar RSUExampleScenario.node[119].veinsmobility 	minSpeed 	0.25033378568641
scalar RSUExampleScenario.node[119].veinsmobility 	maxSpeed 	18.999456967432
scalar RSUExampleScenario.node[119].veinsmobility 	totalDistance 	3409.4913325473
scalar RSUExampleScenario.node[119].veinsmobility 	totalCO2Emission 	709.69210674887
scalar RSUExampleScenario.node[120].veinsmobility 	startTime 	720.1
scalar RSUExampleScenario.node[120].veinsmobility 	totalTime 	226.9
scalar RSUExampleScenario.node[120].veinsmobility 	stopTime 	947.1
scalar RSUExampleScenario.node[120].veinsmobility 	minSpeed 	0.25465745341638
scalar RSUExampleScenario.node[120].veinsmobility 	maxSpeed 	18.999548871291
scalar RSUExampleScenario.node[120].veinsmobility 	totalDistance 	3409.6472753212
scalar RSUExampleScenario.node[120].veinsmobility 	totalCO2Emission 	712.13646423613
scalar RSUExampleScenario.node[121].veinsmobility 	startTime 	726.1
scalar RSUExampleScenario.node[121].veinsmobility 	totalTime 	226.8
scalar RSUExampleScenario.node[121].veinsmobility 	stopTime 	953
scalar RSUExampleScenario.node[121].veinsmobility 	minSpeed 	0.25485920328135
scalar RSUExampleScenario.node[121].veinsmobility 	maxSpeed 	18.999808669568
scalar RSUExampleScenario.node[121].veinsmobility 	totalDistance 	3409.3060817311
scalar RSUExampleScenario.node[121].veinsmobility 	totalCO2Emission 	706.22374016617
scalar RSUExampleScenario.node[122].veinsmobility 	startTime 	732.1
scalar RSUExampleScenario.node[122].veinsmobility 	totalTime 	227
scalar RSUExampleScenario.node[122].veinsmobility 	stopTime 	959.2
scalar RSUExampleScenario.node[122].veinsmobility 	minSpeed 	0.24987717738911
scalar RSUExampleScenario.node[122].veinsmobility 	maxSpeed 	18.999497240982
scalar RSUExampleScenario.node[122].veinsmobility 	totalDistance 	3409.4238314413
scalar RSUExampleScenario.node[122].veinsmobility 	totalCO2Emission 	707.19759809306
scalar RSUExampleScenario.node[123].veinsmobility 	startTime 	738.1
scalar RSUExampleScenario.node[123].veinsmobility 	totalTime 	227.1
scalar RSUExampleScenario.node[123].veinsmobility 	stopTime 	965.3
scalar RSUExampleScenario.node[123].veinsmobility 	minSpeed 	0.24743090905994
scalar RSUExampleScenario.node[123].veinsmobility 	maxSpeed 	18.999737283436
scalar RSUExampleScenario.node[123].veinsmobility 	totalDistance 	3409.383345664
scalar RSUExampleScenario.node[123].veinsmobility 	totalCO2Emission 	709.04713920818
scalar RSUExampleScenario.node[124].veinsmobility 	startTime 	744.1
scalar RSUExampleScenario.node[124].veinsmobility 	totalTime 	226.7
scalar RSUExampleScenario.node[124].veinsmobility 	stopTime 	970.9
scalar RSUExampleScenario.node[124].veinsmobility 	minSpeed 	0.2477766823573
scalar RSUExampleScenario.node[124].veinsmobility 	maxSpeed 	18.999874768942
scalar RSUExampleScenario.node[124].veinsmobility 	totalDistance 	3409.7673873569
scalar RSUExampleScenario.node[124].veinsmobility 	totalCO2Emission 	708.73717818821
scalar RSUExampleScenario.node[125].veinsmobility 	startTime 	750.1
scalar RSUExampleScenario.node[125].veinsmobility 	totalTime 	227.3
scalar RSUExampleScenario.node[125].veinsmobility 	stopTime 	977.5
scalar RSUExampleScenario.node[125].veinsmobility 	minSpeed 	0.24785289392271
scalar RSUExampleScenario.node[125].veinsmobility 	maxSpeed 	18.999850170969
scalar RSUExampleScenario.node[125].veinsmobility 	totalDistance 	3409.2272178877
scalar RSUExampleScenario.node[125].veinsmobility 	totalCO2Emission 	706.67520505942
scalar RSUExampleScenario.node[126].veinsmobility 	startTime 	756.1
scalar RSUExampleScenario.node[126].veinsmobility 	totalTime 	227
scalar RSUExampleScenario.node[126].veinsmobility 	stopTime 	983.2
scalar RSUExampleScenario.node[126].veinsmobility 	minSpeed 	0.25897762868111
scalar RSUExampleScenario.node[126].veinsmobility 	maxSpeed 	18.999623415312
scalar RSUExampleScenario.node[126].veinsmobility 	totalDistance 	3409.6229254542
scalar RSUExampleScenario.node[126].veinsmobility 	totalCO2Emission 	708.97166907473
scalar RSUExampleScenario.node[127].veinsmobility 	startTime 	762.1
scalar RSUExampleScenario.node[127].veinsmobility 	totalTime 	226.9
scalar RSUExampleScenario.node[127].veinsmobility 	stopTime 	989.1
scalar RSUExampleScenario.node[127].veinsmobility 	minSpeed 	0.2574010692474
scalar RSUExampleScenario.node[127].veinsmobility 	maxSpeed 	18.999301745675
scalar RSUExampleScenario.node[127].veinsmobility 	totalDistance 	3409.3426472083
scalar RSUExampleScenario.node[127].veinsmobility 	totalCO2Emission 	707.57525165406
scalar RSUExampleScenario.node[128].veinsmobility 	startTime 	768.1
scalar RSUExampleScenario.node[128].veinsmobility 	totalTime 	226.9
scalar RSUExampleScenario.node[128].veinsmobility 	stopTime 	995.1
scalar RSUExampleScenario.node[128].veinsmobility 	minSpeed 	0.25547107137344
scalar RSUExampleScenario.node[128].veinsmobility 	maxSpeed 	18.999515402529
scalar RSUExampleScenario.node[128].veinsmobility 	totalDistance 	3409.0975040473
scalar RSUExampleScenario.node[128].veinsmobility 	totalCO2Emission 	710.06602460931
scalar RSUExampleScenario.node[129].veinsmobility 	startTime 	774.1
scalar RSUExampleScenario.node[129].veinsmobility 	totalTime 	226.8
scalar RSUExampleScenario.node[129].veinsmobility 	stopTime 	1001
scalar RSUExampleScenario.node[129].veinsmobility 	minSpeed 	0.25223636465659
scalar RSUExampleScenario.node[129].veinsmobility 	maxSpeed 	18.999969484969
scalar RSUExampleScenario.node[129].veinsmobility 	totalDistance 	3409.6482856969
scalar RSUExampleScenario.node[129].veinsmobility 	totalCO2Emission 	706.04530955345
scalar RSUExampleScenario.node[130].veinsmobility 	startTime 	780.1
scalar RSUExampleScenario.node[130].veinsmobility 	totalTime 	226.8
scalar RSUExampleScenario.node[130].veinsmobility 	stopTime 	1007
scalar RSUExampleScenario.node[130].veinsmobility 	minSpeed 	0.25393830068014
scalar RSUExampleScenario.node[130].veinsmobility 	maxSpeed 	18.999610284364
scalar RSUExampleScenario.node[130].veinsmobility 	totalDistance 	3409.4280353041
scalar RSUExampleScenario.node[130].veinsmobility 	totalCO2Emission 	703.95800731054
scalar RSUExampleScenario.node[131].veinsmobility 	startTime 	786.1
scalar RSUExampleScenario.node[131].veinsmobility 	totalTime 	227.2
scalar RSUExampleScenario.node[131].veinsmobility 	stopTime 	1013.4
scalar RSUExampleScenario.node[131].veinsmobility 	minSpeed 	0.25335594045185
scalar RSUExampleScenario.node[131].veinsmobility 	maxSpeed 	18.999958668281
scalar RSUExampleScenario.node[131].veinsmobility 	totalDistance 	3409.4849164419
scalar RSUExampleScenario.node[131].veinsmobility 	totalCO2Emission 	705.41851914556
scalar RSUExampleScenario.node[132].veinsmobility 	startTime 	792.1
scalar RSUExampleScenario.node[132].veinsmobility 	totalTime 	226.8
scalar RSUExampleScenario.node[132].veinsmobility 	stopTime 	1019
scalar RSUExampleScenario.node[132].veinsmobility 	minSpeed 	0.25820397241996
scalar RSUExampleScenario.node[132].veinsmobility 	maxSpeed 	18.99997022151
scalar RSUExampleScenario.node[132].veinsmobility 	totalDistance 	3409.6111904106
scalar RSUExampleScenario.node[132].veinsmobility 	totalCO2Emission 	707.64186754045
scalar RSUExampleScenario.node[133].veinsmobility 	startTime 	798.1
scalar RSUExampleScenario.node[133].veinsmobility 	totalTime 	226.9
scalar RSUExampleScenario.node[133].veinsmobility 	stopTime 	1025.1
scalar RSUExampleScenario.node[133].veinsmobility 	minSpeed 	0.25421723476006
scalar RSUExampleScenario.node[133].veinsmobility 	maxSpeed 	18.99998936943
scalar RSUExampleScenario.node[133].veinsmobility 	totalDistance 	3409.1690536679
scalar RSUExampleScenario.node[133].veinsmobility 	totalCO2Emission 	707.53437265467
scalar RSUExampleScenario.node[134].veinsmobility 	startTime 	804.1
scalar RSUExampleScenario.node[134].veinsmobility 	totalTime 	226.7
scalar RSUExampleScenario.node[134].veinsmobility 	stopTime 	1030.9
scalar RSUExampleScenario.node[134].veinsmobility 	minSpeed 	0.25872395637841
scalar RSUExampleScenario.node[134].veinsmobility 	maxSpeed 	18.99973266318
scalar RSUExampleScenario.node[134].veinsmobility 	totalDistance 	3409.081316197
scalar RSUExampleScenario.node[134].veinsmobility 	totalCO2Emission 	707.33333143945
scalar RSUExampleScenario.node[135].veinsmobility 	startTime 	810.1
scalar RSUExampleScenario.node[135].veinsmobility 	totalTime 	227
scalar RSUExampleScenario.node[135].veinsmobility 	stopTime 	1037.2
scalar RSUExampleScenario.node[135].veinsmobility 	minSpeed 	0.25143880364695
scalar RSUExampleScenario.node[135].veinsmobility 	maxSpeed 	18.999806244799
scalar RSUExampleScenario.node[135].veinsmobility 	totalDistance 	3410.0634380411
scalar RSUExampleScenario.node[135].veinsmobility 	totalCO2Emission 	708.93035694243
scalar RSUExampleScenario.node[136].veinsmobility 	startTime 	816.1
scalar RSUExampleScenario.node[136].veinsmobility 	totalTime 	227
scalar RSUExampleScenario.node[136].veinsmobility 	stopTime 	1043.2
scalar RSUExampleScenario.node[136].veinsmobility 	minSpeed 	0.2596985982561
scalar RSUExampleScenario.node[136].veinsmobility 	maxSpeed 	18.999620879127
scalar RSUExampleScenario.node[136].veinsmobility 	totalDistance 	3409.6680489251
scalar RSUExampleScenario.node[136].veinsmobility 	totalCO2Emission 	708.83033288452
scalar RSUExampleScenario.node[137].veinsmobility 	startTime 	822.1
scalar RSUExampleScenario.node[137].veinsmobility 	totalTime 	226.6
scalar RSUExampleScenario.node[137].veinsmobility 	stopTime 	1048.8
scalar RSUExampleScenario.node[137].veinsmobility 	minSpeed 	0.25224249801855
scalar RSUExampleScenario.node[137].veinsmobility 	maxSpeed 	18.999552436436
scalar RSUExampleScenario.node[137].veinsmobility 	totalDistance 	3409.5984932716
scalar RSUExampleScenario.node[137].veinsmobility 	totalCO2Emission 	706.6621728452
scalar RSUExampleScenario.node[138].veinsmobility 	startTime 	828.1
scalar RSUExampleScenario.node[138].veinsmobility 	totalTime 	226.5
scalar RSUExampleScenario.node[138].veinsmobility 	stopTime 	1054.7
scalar RSUExampleScenario.node[138].veinsmobility 	minSpeed 	0.24887416461296
scalar RSUExampleScenario.node[138].veinsmobility 	maxSpeed 	18.999835869558
scalar RSUExampleScenario.node[138].veinsmobility 	totalDistance 	3409.3082699119
scalar RSUExampleScenario.node[138].veinsmobility 	totalCO2Emission 	709.05075460586
scalar RSUExampleScenario.node[139].veinsmobility 	startTime 	834.1
scalar RSUExampleScenario.node[139].veinsmobility 	totalTime 	226.8
scalar RSUExampleScenario.node[139].veinsmobility 	stopTime 	1061
scalar RSUExampleScenario.node[139].veinsmobility 	minSpeed 	0.25229597193864
scalar RSUExampleScenario.node[139].veinsmobility 	maxSpeed 	18.999757629181
scalar RSUExampleScenario.node[139].veinsmobility 	totalDistance 	3409.2291244451
scalar RSUExampleScenario.node[139].veinsmobility 	totalCO2Emission 	710.39604109471
scalar RSUExampleScenario.node[140].veinsmobility 	startTime 	840.1
scalar RSUExampleScenario.node[140].veinsmobility 	totalTime 	227.1
scalar RSUExampleScenario.node[140].veinsmobility 	stopTime 	1067.3
scalar RSUExampleScenario.node[140].veinsmobility 	minSpeed 	0.2531185672828
scalar RSUExampleScenario.node[140].veinsmobility 	maxSpeed 	18.999577274132
scalar RSUExampleScenario.node[140].veinsmobility 	totalDistance 	3409.5553878981
scalar RSUExampleScenario.node[140].veinsmobility 	totalCO2Emission 	706.71736110504
scalar RSUExampleScenario.node[141].veinsmobility 	startTime 	846.1
scalar RSUExampleScenario.node[141].veinsmobility 	totalTime 	227.1
scalar RSUExampleScenario.node[141].veinsmobility 	stopTime 	1073.3
scalar RSUExampleScenario.node[141].veinsmobility 	minSpeed 	0.2490555199075
scalar RSUExampleScenario.node[141].veinsmobility 	maxSpeed 	18.999947693776
scalar RSUExampleScenario.node[141].veinsmobility 	totalDistance 	3409.6503525088
scalar RSUExampleScenario.node[141].veinsmobility 	totalCO2Emission 	709.9039577638
scalar RSUExampleScenario.node[142].veinsmobility 	startTime 	852.1
scalar RSUExampleScenario.node[142].veinsmobility 	totalTime 	226.9
scalar RSUExampleScenario.node[142].veinsmobility 	stopTime 	1079.1
scalar RSUExampleScenario.node[142].veinsmobility 	minSpeed 	0.2589381667308
scalar RSUExampleScenario.node[142].veinsmobility 	maxSpeed 	18.999674655104
scalar RSUExampleScenario.node[142].veinsmobility 	totalDistance 	3409.2597307024
scalar RSUExampleScenario.node[142].veinsmobility 	totalCO2Emission 	706.00552126431
scalar RSUExampleScenario.node[143].veinsmobility 	startTime 	858.1
scalar RSUExampleScenario.node[143].veinsmobility 	totalTime 	226.9
scalar RSUExampleScenario.node[143].veinsmobility 	stopTime 	1085.1
scalar RSUExampleScenario.node[143].veinsmobility 	minSpeed 	0.24874634285434
scalar RSUExampleScenario.node[143].veinsmobility 	maxSpeed 	18.999875913647
scalar RSUExampleScenario.node[143].veinsmobility 	totalDistance 	3409.2957675888
scalar RSUExampleScenario.node[143].veinsmobility 	totalCO2Emission 	709.94076965674
scalar RSUExampleScenario.node[144].veinsmobility 	startTime 	864.1
scalar RSUExampleScenario.node[144].veinsmobility 	totalTime 	226.9
scalar RSUExampleScenario.node[144].veinsmobility 	stopTime 	1091.1
scalar RSUExampleScenario.node[144].veinsmobility 	minSpeed 	0.2502177943266
scalar RSUExampleScenario.node[144].veinsmobility 	maxSpeed 	18.999725433127
scalar RSUExampleScenario.node[144].veinsmobility 	totalDistance 	3409.1523466159
scalar RSUExampleScenario.node[144].veinsmobility 	totalCO2Emission 	704.67847612121
scalar RSUExampleScenario.node[145].veinsmobility 	startTime 	870.1
scalar RSUExampleScenario.node[145].veinsmobility 	totalTime 	226.8
scalar RSUExampleScenario.node[145].veinsmobility 	stopTime 	1097
scalar RSUExampleScenario.node[145].veinsmobility 	minSpeed 	0.25659431319055
scalar RSUExampleScenario.node[145].veinsmobility 	maxSpeed 	18.999800531687
scalar RSUExampleScenario.node[145].veinsmobility 	totalDistance 	3409.2438240594
scalar RSUExampleScenario.node[145].veinsmobility 	totalCO2Emission 	705.38508931137
scalar RSUExampleScenario.node[146].veinsmobility 	startTime 	876.1
scalar RSUExampleScenario.node[146].veinsmobility 	totalTime 	226.9
scalar RSUExampleScenario.node[146].veinsmobility 	stopTime 	1103.1
scalar RSUExampleScenario.node[146].veinsmobility 	minSpeed 	0.2504179238556
scalar RSUExampleScenario.node[146].veinsmobility 	maxSpeed 	18.999677879885
scalar RSUExampleScenario.node[146].veinsmobility 	totalDistance 	3409.2477084456
scalar RSUExampleScenario.node[146].veinsmobility 	totalCO2Emission 	707.06117738786
scalar RSUExampleScenario.node[147].veinsmobility 	startTime 	882.1
scalar RSUExampleScenario.node[147].veinsmobility 	totalTime 	226.8
scalar RSUExampleScenario.node[147].veinsmobility 	stopTime 	1109
scalar RSUExampleScenario.node[147].veinsmobility 	minSpeed 	0.25350397599326
scalar RSUExampleScenario.node[147].veinsmobility 	maxSpeed 	18.999310692104
scalar RSUExampleScenario.node[147].veinsmobility 	totalDistance 	3409.2867498625
scalar RSUExampleScenario.node[147].veinsmobility 	totalCO2Emission 	707.58689190623
scalar RSUExampleScenario.node[148].veinsmobility 	startTime 	888.1
scalar RSUExampleScenario.node[148].veinsmobility 	totalTime 	226.8
scalar RSUExampleScenario.node[148].veinsmobility 	stopTime 	1115
scalar RSUExampleScenario.node[148].veinsmobility 	minSpeed 	0.24999695485597
scalar RSUExampleScenario.node[148].veinsmobility 	maxSpeed 	18.999957156093
scalar RSUExampleScenario.node[148].veinsmobility 	totalDistance 	3409.5218827795
scalar RSUExampleScenario.node[148].veinsmobility 	totalCO2Emission 	709.33824626918
scalar RSUExampleScenario.node[149].veinsmobility 	startTime 	894.1
scalar RSUExampleScenario.node[149].veinsmobility 	totalTime 	226.8
scalar RSUExampleScenario.node[149].veinsmobility 	stopTime 	1121
scalar RSUExampleScenario.node[149].veinsmobility 	minSpeed 	0.24807611602545
scalar RSUExampleScenario.node[149].veinsmobility 	maxSpeed 	18.999658315235
scalar RSUExampleScenario.node[149].veinsmobility 	totalDistance 	3409.4032834088
scalar RSUExampleScenario.node[149].veinsmobility 	totalCO2Emission 	709.367307408
scalar RSUExampleScenario.node[150].veinsmobility 	startTime 	900.1
scalar RSUExampleScenario.node[150].veinsmobility 	totalTime 	227
scalar RSUExampleScenario.node[150].veinsmobility 	stopTime 	1127.2
scalar RSUExampleScenario.node[150].veinsmobility 	minSpeed 	0.24840478096553
scalar RSUExampleScenario.node[150].veinsmobility 	maxSpeed 	18.999746926331
scalar RSUExampleScenario.node[150].veinsmobility 	totalDistance 	3409.4268633254
scalar RSUExampleScenario.node[150].veinsmobility 	totalCO2Emission 	707.53324049374
scalar RSUExampleScenario.node[151].veinsmobility 	startTime 	906.1
scalar RSUExampleScenario.node[151].veinsmobility 	totalTime 	226.8
scalar RSUExampleScenario.node[151].veinsmobility 	stopTime 	1133
scalar RSUExampleScenario.node[151].veinsmobility 	minSpeed 	0.24730460500461
scalar RSUExampleScenario.node[151].veinsmobility 	maxSpeed 	18.999810040253
scalar RSUExampleScenario.node[151].veinsmobility 	totalDistance 	3409.3635514555
scalar RSUExampleScenario.node[151].veinsmobility 	totalCO2Emission 	705.77116575838
scalar RSUExampleScenario.node[152].veinsmobility 	startTime 	912.1
scalar RSUExampleScenario.node[152].veinsmobility 	totalTime 	227
scalar RSUExampleScenario.node[152].veinsmobility 	stopTime 	1139.2
scalar RSUExampleScenario.node[152].veinsmobility 	minSpeed 	0.2585784477354
scalar RSUExampleScenario.node[152].veinsmobility 	maxSpeed 	18.99999146679
scalar RSUExampleScenario.node[152].veinsmobility 	totalDistance 	3409.5954885348
scalar RSUExampleScenario.node[152].veinsmobility 	totalCO2Emission 	703.73426823024
[...]
scalar RSUExampleScenario.node[262].veinsmobility 	startTime 	1572.1
scalar RSUExampleScenario.node[262].veinsmobility 	totalTime 	226.8
scalar RSUExampleScenario.node[262].veinsmobility 	stopTime 	1799
scalar RSUExampleScenario.node[262].veinsmobility 	minSpeed 	0.25470992628345
scalar RSUExampleScenario.node[262].veinsmobility 	maxSpeed 	18.999884136731
scalar RSUExampleScenario.node[262].veinsmobility 	totalDistance 	3409.6061360451
scalar RSUExampleScenario.node[262].veinsmobility 	totalCO2Emission 	705.49143303948
scalar RSUExampleScenario.node[263].veinsmobility 	startTime 	1578.1
scalar RSUExampleScenario.node[263].veinsmobility 	totalTime 	226.9
scalar RSUExampleScenario.node[263].veinsmobility 	stopTime 	1805.1
scalar RSUExampleScenario.node[263].veinsmobility 	minSpeed 	0.25351957782521
scalar RSUExampleScenario.node[263].veinsmobility 	maxSpeed 	18.999908546498
scalar RSUExampleScenario.node[263].veinsmobility 	totalDistance 	3409.2075280865
scalar RSUExampleScenario.node[263].veinsmobility 	totalCO2Emission 	708.28863342807
scalar RSUExampleScenario.node[264].veinsmobility 	startTime 	1584.1
scalar RSUExampleScenario.node[264].veinsmobility 	totalTime 	226.6
scalar RSUExampleScenario.node[264].veinsmobility 	stopTime 	1810.8
scalar RSUExampleScenario.node[264].veinsmobility 	minSpeed 	0.24804232705804
scalar RSUExampleScenario.node[264].veinsmobility 	maxSpeed 	18.999869771032
scalar RSUExampleScenario.node[264].veinsmobility 	totalDistance 	3409.7431766013
scalar RSUExampleScenario.node[264].veinsmobility 	totalCO2Emission 	707.20542367686
scalar RSUExampleScenario.node[265].veinsmobility 	startTime 	1590.1
scalar RSUExampleScenario.node[265].veinsmobility 	totalTime 	226.7
scalar RSUExampleScenario.node[265].veinsmobility 	stopTime 	1816.9
scalar RSUExampleScenario.node[265].veinsmobility 	minSpeed 	0.25122123489529
scalar RSUExampleScenario.node[265].veinsmobility 	maxSpeed 	18.999835515514
scalar RSUExampleScenario.node[265].veinsmobility 	totalDistance 	3409.1422797861
scalar RSUExampleScenario.node[265].veinsmobility 	totalCO2Emission 	707.78237753199
scalar RSUExampleScenario.node[266].veinsmobility 	startTime 	1596.1
scalar RSUExampleScenario.node[266].veinsmobility 	totalTime 	226.9
scalar RSUExampleScenario.node[266].veinsmobility 	stopTime 	1823.1
scalar RSUExampleScenario.node[266].veinsmobility 	minSpeed 	0.2514198374257
scalar RSUExampleScenario.node[266].veinsmobility 	maxSpeed 	18.999716802726
scalar RSUExampleScenario.node[266].veinsmobility 	totalDistance 	3409.5617756207
scalar RSUExampleScenario.node[266].veinsmobility 	totalCO2Emission 	705.21781146827
scalar RSUExampleScenario.node[267].veinsmobility 	startTime 	1602.1
scalar RSUExampleScenario.node[267].veinsmobility 	totalTime 	226.8
scalar RSUExampleScenario.node[267].veinsmobility 	stopTime 	1829
scalar RSUExampleScenario.node[267].veinsmobility 	minSpeed 	0.25468375709024
scalar RSUExampleScenario.node[267].veinsmobility 	maxSpeed 	18.999792535703
scalar RSUExampleScenario.node[267].veinsmobility 	totalDistance 	3409.5453866895
scalar RSUExampleScenario.node[267].veinsmobility 	totalCO2Emission 	714.57933579835
scalar RSUExampleScenario.node[268].veinsmobility 	startTime 	1608.1
scalar RSUExampleScenario.node[268].veinsmobility 	totalTime 	227.2
scalar RSUExampleScenario.node[268].veinsmobility 	stopTime 	1835.4
scalar RSUExampleScenario.node[268].veinsmobility 	minSpeed 	0.249226758637
scalar RSUExampleScenario.node[268].veinsmobility 	maxSpeed 	18.999957363277
scalar RSUExampleScenario.node[268].veinsmobility 	totalDistance 	3409.5130947478
scalar RSUExampleScenario.node[268].veinsmobility 	totalCO2Emission 	708.98081207933
scalar RSUExampleScenario.node[269].veinsmobility 	startTime 	1614.1
scalar RSUExampleScenario.node[269].veinsmobility 	totalTime 	227.1
scalar RSUExampleScenario.node[269].veinsmobility 	stopTime 	1841.3
scalar RSUExampleScenario.node[269].veinsmobility 	minSpeed 	0.2499864124537
scalar RSUExampleScenario.node[269].veinsmobility 	maxSpeed 	18.999896741076
scalar RSUExampleScenario.node[269].veinsmobility 	totalDistance 	3410.0117518322
scalar RSUExampleScenario.node[269].veinsmobility 	totalCO2Emission 	709.56598332594
scalar RSUExampleScenario.node[270].veinsmobility 	startTime 	1620.1
scalar RSUExampleScenario.node[270].veinsmobility 	totalTime 	227
scalar RSUExampleScenario.node[270].veinsmobility 	stopTime 	1847.2
scalar RSUExampleScenario.node[270].veinsmobility 	minSpeed 	0.24928952341457
scalar RSUExampleScenario.node[270].veinsmobility 	maxSpeed 	18.999940998983
scalar RSUExampleScenario.node[270].veinsmobility 	totalDistance 	3409.4950142635
scalar RSUExampleScenario.node[270].veinsmobility 	totalCO2Emission 	704.71255098866
scalar RSUExampleScenario.node[271].veinsmobility 	startTime 	1626.1
scalar RSUExampleScenario.node[271].veinsmobility 	totalTime 	226.9
scalar RSUExampleScenario.node[271].veinsmobility 	stopTime 	1853.1
scalar RSUExampleScenario.node[271].veinsmobility 	minSpeed 	0.24705831776909
scalar RSUExampleScenario.node[271].veinsmobility 	maxSpeed 	18.999989836162
scalar RSUExampleScenario.node[271].veinsmobility 	totalDistance 	3409.3032997098
scalar RSUExampleScenario.node[271].veinsmobility 	totalCO2Emission 	708.87230873386
scalar RSUExampleScenario.node[272].veinsmobility 	startTime 	1632.1
scalar RSUExampleScenario.node[272].veinsmobility 	totalTime 	226.8
scalar RSUExampleScenario.node[272].veinsmobility 	stopTime 	1859
scalar RSUExampleScenario.node[272].veinsmobility 	minSpeed 	0.25974107983126
scalar RSUExampleScenario.node[272].veinsmobility 	maxSpeed 	18.999617110097
scalar RSUExampleScenario.node[272].veinsmobility 	totalDistance 	3409.2799364309
scalar RSUExampleScenario.node[272].veinsmobility 	totalCO2Emission 	706.9364574206
scalar RSUExampleScenario.node[273].veinsmobility 	startTime 	1638.1
scalar RSUExampleScenario.node[273].veinsmobility 	totalTime 	226.8
scalar RSUExampleScenario.node[273].veinsmobility 	stopTime 	1865
scalar RSUExampleScenario.node[273].veinsmobility 	minSpeed 	0.25093674591393
scalar RSUExampleScenario.node[273].veinsmobility 	maxSpeed 	18.99922243024
scalar RSUExampleScenario.node[273].veinsmobility 	totalDistance 	3409.4969385343
scalar RSUExampleScenario.node[273].veinsmobility 	totalCO2Emission 	707.99998465123
scalar RSUExampleScenario.node[274].veinsmobility 	startTime 	1644.1
scalar RSUExampleScenario.node[274].veinsmobility 	totalTime 	226.8
scalar RSUExampleScenario.node[274].veinsmobility 	stopTime 	1871
scalar RSUExampleScenario.node[274].veinsmobility 	minSpeed 	0.25764018610655
scalar RSUExampleScenario.node[274].veinsmobility 	maxSpeed 	18.999434652755
scalar RSUExampleScenario.node[274].veinsmobility 	totalDistance 	3409.3597953672
scalar RSUExampleScenario.node[274].veinsmobility 	totalCO2Emission 	708.17330260505
scalar RSUExampleScenario.node[275].veinsmobility 	startTime 	1650.1
scalar RSUExampleScenario.node[275].veinsmobility 	totalTime 	226.7
scalar RSUExampleScenario.node[275].veinsmobility 	stopTime 	1876.9
scalar RSUExampleScenario.node[275].veinsmobility 	minSpeed 	0.2544417793618
scalar RSUExampleScenario.node[275].veinsmobility 	maxSpeed 	18.999875135396
scalar RSUExampleScenario.node[275].veinsmobility 	totalDistance 	3409.4594340004
scalar RSUExampleScenario.node[275].veinsmobility 	totalCO2Emission 	708.26019033494
scalar RSUExampleScenario.node[276].veinsmobility 	startTime 	1656.1
scalar RSUExampleScenario.node[276].veinsmobility 	totalTime 	227.2
scalar RSUExampleScenario.node[276].veinsmobility 	stopTime 	1883.4
scalar RSUExampleScenario.node[276].veinsmobility 	minSpeed 	0.24979217632208
scalar RSUExampleScenario.node[276].veinsmobility 	maxSpeed 	18.999855746694
scalar RSUExampleScenario.node[276].veinsmobility 	totalDistance 	3409.2403810591
scalar RSUExampleScenario.node[276].veinsmobility 	totalCO2Emission 	707.64693071888
scalar RSUExampleScenario.node[277].veinsmobility 	startTime 	1662.1
scalar RSUExampleScenario.node[277].veinsmobility 	totalTime 	226.9
scalar RSUExampleScenario.node[277].veinsmobility 	stopTime 	1889.1
scalar RSUExampleScenario.node[277].veinsmobility 	minSpeed 	0.25111830819608
scalar RSUExampleScenario.node[277].veinsmobility 	maxSpeed 	18.999942218177
scalar RSUExampleScenario.node[277].veinsmobility 	totalDistance 	3409.5295767543
scalar RSUExampleScenario.node[277].veinsmobility 	totalCO2Emission 	709.50820031613
scalar RSUExampleScenario.node[278].veinsmobility 	startTime 	1668.1
scalar RSUExampleScenario.node[278].veinsmobility 	totalTime 	226.7
scalar RSUExampleScenario.node[278].veinsmobility 	stopTime 	1894.9
scalar RSUExampleScenario.node[278].veinsmobility 	minSpeed 	0.25840576192387
scalar RSUExampleScenario.node[278].veinsmobility 	maxSpeed 	18.999932839673
scalar RSUExampleScenario.node[278].veinsmobility 	totalDistance 	3409.9678973614
scalar RSUExampleScenario.node[278].veinsmobility 	totalCO2Emission 	704.93496269491
scalar RSUExampleScenario.node[279].veinsmobility 	startTime 	1674.1
scalar RSUExampleScenario.node[279].veinsmobility 	totalTime 	227
scalar RSUExampleScenario.node[279].veinsmobility 	stopTime 	1901.2
scalar RSUExampleScenario.node[279].veinsmobility 	minSpeed 	0.25401961670187
scalar RSUExampleScenario.node[279].veinsmobility 	maxSpeed 	18.999454011975
scalar RSUExampleScenario.node[279].veinsmobility 	totalDistance 	3409.5005378497
scalar RSUExampleScenario.node[279].veinsmobility 	totalCO2Emission 	711.09987333118
scalar RSUExampleScenario.node[280].veinsmobility 	startTime 	1680.1
scalar RSUExampleScenario.node[280].veinsmobility 	totalTime 	226.7
scalar RSUExampleScenario.node[280].veinsmobility 	stopTime 	1906.9
scalar RSUExampleScenario.node[280].veinsmobility 	minSpeed 	0.25619943765667
scalar RSUExampleScenario.node[280].veinsmobility 	maxSpeed 	18.99980953953
scalar RSUExampleScenario.node[280].veinsmobility 	totalDistance 	3409.1709405967
scalar RSUExampleScenario.node[280].veinsmobility 	totalCO2Emission 	706.10909978349
scalar RSUExampleScenario.node[281].veinsmobility 	startTime 	1686.1
scalar RSUExampleScenario.node[281].veinsmobility 	totalTime 	227
scalar RSUExampleScenario.node[281].veinsmobility 	stopTime 	1913.2
scalar RSUExampleScenario.node[281].veinsmobility 	minSpeed 	0.25652031985368
scalar RSUExampleScenario.node[281].veinsmobility 	maxSpeed 	18.999803094417
scalar RSUExampleScenario.node[281].veinsmobility 	totalDistance 	3409.3114361118
scalar RSUExampleScenario.node[281].veinsmobility 	totalCO2Emission 	704.91795541268
scalar RSUExampleScenario.node[282].veinsmobility 	startTime 	1692.1
scalar RSUExampleScenario.node[282].veinsmobility 	totalTime 	226.8
scalar RSUExampleScenario.node[282].veinsmobility 	stopTime 	1919
scalar RSUExampleScenario.node[282].veinsmobility 	minSpeed 	0.25778859955282
scalar RSUExampleScenario.node[282].veinsmobility 	maxSpeed 	18.999549910845
scalar RSUExampleScenario.node[282].veinsmobility 	totalDistance 	3409.4124744151
scalar RSUExampleScenario.node[282].veinsmobility 	totalCO2Emission 	711.4729706828
scalar RSUExampleScenario.node[283].veinsmobility 	startTime 	1698.1
scalar RSUExampleScenario.node[283].veinsmobility 	totalTime 	226.7
scalar RSUExampleScenario.node[283].veinsmobility 	stopTime 	1924.9
scalar RSUExampleScenario.node[283].veinsmobility 	minSpeed 	0.25228438970097
scalar RSUExampleScenario.node[283].veinsmobility 	maxSpeed 	18.999878858691
scalar RSUExampleScenario.node[283].veinsmobility 	totalDistance 	3409.6004580287
scalar RSUExampleScenario.node[283].veinsmobility 	totalCO2Emission 	703.66500019798
scalar RSUExampleScenario.node[284].veinsmobility 	startTime 	1704.1
scalar RSUExampleScenario.node[284].veinsmobility 	totalTime 	226.9
scalar RSUExampleScenario.node[284].veinsmobility 	stopTime 	1931.1
scalar RSUExampleScenario.node[284].veinsmobility 	minSpeed 	0.25331708354037
scalar RSUExampleScenario.node[284].veinsmobility 	maxSpeed 	18.999764270037
scalar RSUExampleScenario.node[284].veinsmobility 	totalDistance 	3409.4542805349
scalar RSUExampleScenario.node[284].veinsmobility 	totalCO2Emission 	711.94998835866
scalar RSUExampleScenario.node[285].veinsmobility 	startTime 	1710.1
scalar RSUExampleScenario.node[285].veinsmobility 	totalTime 	226.4
scalar RSUExampleScenario.node[285].veinsmobility 	stopTime 	1936.6
scalar RSUExampleScenario.node[285].veinsmobility 	minSpeed 	0.25896701898403
scalar RSUExampleScenario.node[285].veinsmobility 	maxSpeed 	18.999985022312
scalar RSUExampleScenario.node[285].veinsmobility 	totalDistance 	3409.4574645503
scalar RSUExampleScenario.node[285].veinsmobility 	totalCO2Emission 	707.48239642701
scalar RSUExampleScenario.node[286].veinsmobility 	startTime 	1716.1
scalar RSUExampleScenario.node[286].veinsmobility 	totalTime 	227
scalar RSUExampleScenario.node[286].veinsmobility 	stopTime 	1943.2
scalar RSUExampleScenario.node[286].veinsmobility 	minSpeed 	0.25022283371282
scalar RSUExampleScenario.node[286].veinsmobility 	maxSpeed 	18.999988423374
scalar RSUExampleScenario.node[286].veinsmobility 	totalDistance 	3409.9863633246
scalar RSUExampleScenario.node[286].veinsmobility 	totalCO2Emission 	711.73802482192
scalar RSUExampleScenario.node[287].veinsmobility 	startTime 	1722.1
scalar RSUExampleScenario.node[287].veinsmobility 	totalTime 	226.8
scalar RSUExampleScenario.node[287].veinsmobility 	stopTime 	1949
scalar RSUExampleScenario.node[287].veinsmobility 	minSpeed 	0.25966515230667
scalar RSUExampleScenario.node[287].veinsmobility 	maxSpeed 	18.999746479879
scalar RSUExampleScenario.node[287].veinsmobility 	totalDistance 	3409.6483443155
scalar RSUExampleScenario.node[287].veinsmobility 	totalCO2Emission 	706.53561651466
scalar RSUExampleScenario.node[288].veinsmobility 	startTime 	1728.1
scalar RSUExampleScenario.node[288].veinsmobility 	totalTime 	227
scalar RSUExampleScenario.node[288].veinsmobility 	stopTime 	1955.2
scalar RSUExampleScenario.node[288].veinsmobility 	minSpeed 	0.25172605806566
scalar RSUExampleScenario.node[288].veinsmobility 	maxSpeed 	18.999879790158
scalar RSUExampleScenario.node[288].veinsmobility 	totalDistance 	3409.5177426578
scalar RSUExampleScenario.node[288].veinsmobility 	totalCO2Emission 	707.50576798391
scalar RSUExampleScenario.node[289].veinsmobility 	startTime 	1734.1
scalar RSUExampleScenario.node[289].veinsmobility 	totalTime 	226.9
scalar RSUExampleScenario.node[289].veinsmobility 	stopTime 	1961.1
scalar RSUExampleScenario.node[289].veinsmobility 	minSpeed 	0.25774532411201
scalar RSUExampleScenario.node[289].veinsmobility 	maxSpeed 	18.999647896814
scalar RSUExampleScenario.node[289].veinsmobility 	totalDistance 	3409.1914585133
scalar RSUExampleScenario.node[289].veinsmobility 	totalCO2Emission 	709.52652435685
scalar RSUExampleScenario.node[290].veinsmobility 	startTime 	1740.1
scalar RSUExampleScenario.node[290].veinsmobility 	totalTime 	226.7
scalar RSUExampleScenario.node[290].veinsmobility 	stopTime 	1966.9
scalar RSUExampleScenario.node[290].veinsmobility 	minSpeed 	0.24965003466234
scalar RSUExampleScenario.node[290].veinsmobility 	maxSpeed 	18.999981981136
scalar RSUExampleScenario.node[290].veinsmobility 	totalDistance 	3409.3327405417
scalar RSUExampleScenario.node[290].veinsmobility 	totalCO2Emission 	704.95858926883
scalar RSUExampleScenario.node[291].veinsmobility 	startTime 	1746.1
scalar RSUExampleScenario.node[291].veinsmobility 	totalTime 	226.9
scalar RSUExampleScenario.node[291].veinsmobility 	stopTime 	1973.1
scalar RSUExampleScenario.node[291].veinsmobility 	minSpeed 	0.24846739038965
scalar RSUExampleScenario.node[291].veinsmobility 	maxSpeed 	18.99989327969
scalar RSUExampleScenario.node[291].veinsmobility 	totalDistance 	3409.4346938853
scalar RSUExampleScenario.node[291].veinsmobility 	totalCO2Emission 	708.69424666901
scalar RSUExampleScenario.node[292].veinsmobility 	startTime 	1752.1
scalar RSUExampleScenario.node[292].veinsmobility 	totalTime 	227
scalar RSUExampleScenario.node[292].veinsmobility 	stopTime 	1979.2
scalar RSUExampleScenario.node[292].veinsmobility 	minSpeed 	0.25285246556881
scalar RSUExampleScenario.node[292].veinsmobility 	maxSpeed 	18.999886993121
scalar RSUExampleScenario.node[292].veinsmobility 	totalDistance 	3409.2954354573
scalar RSUExampleScenario.node[292].veinsmobility 	totalCO2Emission 	704.49296105751
scalar RSUExampleScenario.node[293].veinsmobility 	startTime 	1758.1
scalar RSUExampleScenario.node[293].veinsmobility 	totalTime 	227
scalar RSUExampleScenario.node[293].veinsmobility 	stopTime 	1985.2
scalar RSUExampleScenario.node[293].veinsmobility 	minSpeed 	0.25806779785408
scalar RSUExampleScenario.node[293].veinsmobility 	maxSpeed 	18.999794792968
scalar RSUExampleScenario.node[293].veinsmobility 	totalDistance 	3410.0149765214
scalar RSUExampleScenario.node[293].veinsmobility 	totalCO2Emission 	710.79006941787
scalar RSUExampleScenario.node[294].veinsmobility 	startTime 	1764.1
scalar RSUExampleScenario.node[294].veinsmobility 	totalTime 	227.2
scalar RSUExampleScenario.node[294].veinsmobility 	stopTime 	1991.4
scalar RSUExampleScenario.node[294].veinsmobility 	minSpeed 	0.25024537981022
scalar RSUExampleScenario.node[294].veinsmobility 	maxSpeed 	18.999976591771
scalar RSUExampleScenario.node[294].veinsmobility 	totalDistance 	3409.9181449332
scalar RSUExampleScenario.node[294].veinsmobility 	totalCO2Emission 	705.93377650194
scalar RSUExampleScenario.node[295].veinsmobility 	startTime 	1770.1
scalar RSUExampleScenario.node[295].veinsmobility 	totalTime 	226.6
scalar RSUExampleScenario.node[295].veinsmobility 	stopTime 	1996.8
scalar RSUExampleScenario.node[295].veinsmobility 	minSpeed 	0.25311167572602
scalar RSUExampleScenario.node[295].veinsmobility 	maxSpeed 	18.999659567664
scalar RSUExampleScenario.node[295].veinsmobility 	totalDistance 	3409.5135229849
scalar RSUExampleScenario.node[295].veinsmobility 	totalCO2Emission 	706.56005575916
scalar RSUExampleScenario.node[296].veinsmobility 	startTime 	1776.1
scalar RSUExampleScenario.node[296].veinsmobility 	totalTime 	223.8
scalar RSUExampleScenario.node[296].veinsmobility 	stopTime 	2000
scalar RSUExampleScenario.node[296].veinsmobility 	minSpeed 	0.24932335223281
scalar RSUExampleScenario.node[296].veinsmobility 	maxSpeed 	18.999629104906
scalar RSUExampleScenario.node[296].veinsmobility 	totalDistance 	3389.4296611707
scalar RSUExampleScenario.node[296].veinsmobility 	totalCO2Emission 	692.33450499882
scalar RSUExampleScenario.node[297].veinsmobility 	startTime 	1782.1
scalar RSUExampleScenario.node[297].veinsmobility 	totalTime 	217.8
scalar RSUExampleScenario.node[297].veinsmobility 	stopTime 	2000
scalar RSUExampleScenario.node[297].veinsmobility 	minSpeed 	0.2520142543877
scalar RSUExampleScenario.node[297].veinsmobility 	maxSpeed 	18.999680726377
scalar RSUExampleScenario.node[297].veinsmobility 	totalDistance 	3326.0626784086
scalar RSUExampleScenario.node[297].veinsmobility 	totalCO2Emission 	683.3853266983
scalar RSUExampleScenario.node[298].veinsmobility 	startTime 	1788.1
scalar RSUExampleScenario.node[298].veinsmobility 	totalTime 	211.8
scalar RSUExampleScenario.node[298].veinsmobility 	stopTime 	2000
scalar RSUExampleScenario.node[298].veinsmobility 	minSpeed 	0.24885682245973
scalar RSUExampleScenario.node[298].veinsmobility 	maxSpeed 	18.9999875713
scalar RSUExampleScenario.node[298].veinsmobility 	totalDistance 	3243.9852814584
scalar RSUExampleScenario.node[298].veinsmobility 	totalCO2Emission 	671.77635728134
scalar RSUExampleScenario.node[299].veinsmobility 	startTime 	1794.1
scalar RSUExampleScenario.node[299].veinsmobility 	totalTime 	205.8
scalar RSUExampleScenario.node[299].veinsmobility 	stopTime 	2000
scalar RSUExampleScenario.node[299].veinsmobility 	minSpeed 	0.25137762901909
scalar RSUExampleScenario.node[299].veinsmobility 	maxSpeed 	18.99997740383
scalar RSUExampleScenario.node[299].veinsmobility 	totalDistance 	3157.2029391809
scalar RSUExampleScenario.node[299].veinsmobility 	totalCO2Emission 	658.20653461627
