version 2
run statistic-1274-20150313-00:39:50-17784
attr c 14
attr configname statistic
attr datetime 20150313-00:39:50
attr experiment statistic
attr inifile omnetpp.ini
attr iterationvars "$p=1/10, $c=14"
attr iterationvars2 "$p=1/10, $c=14, $repetition=74"
attr measurement "$p=1/10, $c=14"
attr network RSUExampleScenario
attr p 1/10
attr processid 17784
attr repetition 74
attr replication #74
attr resultdir results
attr runnumber 1274
attr seedset 1274

scalar . 	c 	14
scalar RSUExampleScenario.rsu[0].appl 	NumberofCH 	9
scalar RSUExampleScenario.rsu[0].appl 	NumberofON 	87
scalar RSUExampleScenario.rsu[0].appl 	NumberofFN 	4
scalar RSUExampleScenario.rsu[0].appl 	meanClusterNodes 	9
scalar RSUExampleScenario.rsu[0].appl 	varClusterNodes 	3
scalar RSUExampleScenario.rsu[0].appl 	sumCHutility 	335.22228220313
scalar RSUExampleScenario.rsu[0].appl 	meanCHutility 	9
scalar RSUExampleScenario.rsu[0].appl 	varCHutility 	3
scalar RSUExampleScenario.rsu[0].appl 	sumDiffCHutility 	-29.234092509267
scalar RSUExampleScenario.rsu[0].appl 	meanDiffCHutility 	9
scalar RSUExampleScenario.rsu[0].appl 	varDiffCHutility 	3
scalar RSUExampleScenario.rsu[0].appl 	expectedCHutility 	305.98818969387
scalar RSUExampleScenario.rsu[0].appl 	meanExpectedCHutility 	9
scalar RSUExampleScenario.rsu[0].appl 	varExpectedCHutility 	3
