version 2
run statistic2-45-20150318-11:59:19-8712
attr c 18
attr configname statistic2
attr datetime 20150318-11:59:19
attr experiment statistic2
attr inifile omnetpp.ini
attr iterationvars "$p=1/15, $c=18"
attr iterationvars2 "$p=1/15, $c=18, $repetition=5"
attr measurement "$p=1/15, $c=18"
attr network RSUExampleScenario
attr p 1/15
attr processid 8712
attr repetition 5
attr replication #5
attr resultdir results
attr runnumber 45
attr seedset 45

scalar . 	c 	18
scalar RSUExampleScenario.rsu[0].appl 	NumberofCH 	5
scalar RSUExampleScenario.rsu[0].appl 	NumberofON 	78
scalar RSUExampleScenario.rsu[0].appl 	NumberofFN 	17
scalar RSUExampleScenario.rsu[0].appl 	meanClusterNodes 	15.6
scalar RSUExampleScenario.rsu[0].appl 	varClusterNodes 	4.3174066289846
scalar RSUExampleScenario.rsu[0].appl 	sumCHutility 	179.32913589196
scalar RSUExampleScenario.rsu[0].appl 	meanCHutility 	35.865827178392
scalar RSUExampleScenario.rsu[0].appl 	varCHutility 	1.2971153398951
scalar RSUExampleScenario.rsu[0].appl 	sumDiffCHutility 	-11.150947501715
scalar RSUExampleScenario.rsu[0].appl 	meanDiffCHutility 	-2.230189500343
scalar RSUExampleScenario.rsu[0].appl 	varDiffCHutility 	1.4264242599732
scalar RSUExampleScenario.rsu[0].appl 	expectedCHutility 	168.17818839025
scalar RSUExampleScenario.rsu[0].appl 	meanExpectedCHutility 	33.635637678049
scalar RSUExampleScenario.rsu[0].appl 	varExpectedCHutility 	0.34622035698385
