version 2
run statistic1-410-20150314-04:58:56-29360
attr c 23
attr configname statistic1
attr datetime 20150314-04:58:56
attr experiment statistic1
attr inifile omnetpp.ini
attr iterationvars "$p=1/20, $c=23"
attr iterationvars2 "$p=1/20, $c=23, $repetition=10"
attr measurement "$p=1/20, $c=23"
attr network RSUExampleScenario
attr p 1/20
attr processid 29360
attr repetition 10
attr replication #10
attr resultdir results
attr runnumber 410
attr seedset 410

scalar . 	c 	23
scalar RSUExampleScenario.rsu[0].appl 	NumberofCH 	6
scalar RSUExampleScenario.rsu[0].appl 	NumberofON 	83
scalar RSUExampleScenario.rsu[0].appl 	NumberofFN 	11
scalar RSUExampleScenario.rsu[0].appl 	meanClusterNodes 	6
scalar RSUExampleScenario.rsu[0].appl 	varClusterNodes 	2.4494897427832
scalar RSUExampleScenario.rsu[0].appl 	sumCHutility 	218.40990978581
scalar RSUExampleScenario.rsu[0].appl 	meanCHutility 	6
scalar RSUExampleScenario.rsu[0].appl 	varCHutility 	2.4494897427832
scalar RSUExampleScenario.rsu[0].appl 	sumDiffCHutility 	-13.535099726607
scalar RSUExampleScenario.rsu[0].appl 	meanDiffCHutility 	6
scalar RSUExampleScenario.rsu[0].appl 	varDiffCHutility 	2.4494897427832
scalar RSUExampleScenario.rsu[0].appl 	expectedCHutility 	204.87481005921
scalar RSUExampleScenario.rsu[0].appl 	meanExpectedCHutility 	6
scalar RSUExampleScenario.rsu[0].appl 	varExpectedCHutility 	2.4494897427832
