version 2
run statisticRVV-113-20150325-05:07:35-1120
attr c 6
attr configname statisticRVV
attr datetime 20150325-05:07:35
attr experiment statisticRVV
attr inifile omnetpp.ini
attr iterationvars "$sc=\"erlangen-low.launchd.xml\", $p=1/5, $c=6"
attr iterationvars2 "$sc=\"erlangen-low.launchd.xml\", $p=1/5, $c=6, $repetition=3"
attr measurement "$sc=\"erlangen-low.launchd.xml\", $p=1/5, $c=6"
attr network RSUExampleScenario
attr p 1/5
attr processid 1120
attr repetition 3
attr replication #3
attr resultdir results
attr runnumber 113
attr sc "\"erlangen-low.launchd.xml\""
attr seedset 113

scalar . 	c 	6
scalar RSUExampleScenario.node[0].veinsmobility 	startTime 	0.1
scalar RSUExampleScenario.node[0].veinsmobility 	totalTime 	227.3
scalar RSUExampleScenario.node[0].veinsmobility 	stopTime 	227.5
scalar RSUExampleScenario.node[0].veinsmobility 	minSpeed 	0.24892418859131
scalar RSUExampleScenario.node[0].veinsmobility 	maxSpeed 	18.999799248506
scalar RSUExampleScenario.node[0].veinsmobility 	totalDistance 	3409.2255696387
scalar RSUExampleScenario.node[0].veinsmobility 	totalCO2Emission 	703.94365410427
scalar RSUExampleScenario.node[1].veinsmobility 	startTime 	6.1
scalar RSUExampleScenario.node[1].veinsmobility 	totalTime 	226.9
scalar RSUExampleScenario.node[1].veinsmobility 	stopTime 	233.1
scalar RSUExampleScenario.node[1].veinsmobility 	minSpeed 	0.25914330760273
scalar RSUExampleScenario.node[1].veinsmobility 	maxSpeed 	18.999831039847
scalar RSUExampleScenario.node[1].veinsmobility 	totalDistance 	3409.2137788382
scalar RSUExampleScenario.node[1].veinsmobility 	totalCO2Emission 	706.0734641427
scalar RSUExampleScenario.node[2].veinsmobility 	startTime 	12.1
scalar RSUExampleScenario.node[2].veinsmobility 	totalTime 	226.8
scalar RSUExampleScenario.node[2].veinsmobility 	stopTime 	239
scalar RSUExampleScenario.node[2].veinsmobility 	minSpeed 	0.25974002853339
scalar RSUExampleScenario.node[2].veinsmobility 	maxSpeed 	18.999768936452
scalar RSUExampleScenario.node[2].veinsmobility 	totalDistance 	3409.5799194653
scalar RSUExampleScenario.node[2].veinsmobility 	totalCO2Emission 	705.3131182131
scalar RSUExampleScenario.node[3].veinsmobility 	startTime 	18.1
scalar RSUExampleScenario.node[3].veinsmobility 	totalTime 	227
scalar RSUExampleScenario.node[3].veinsmobility 	stopTime 	245.2
scalar RSUExampleScenario.node[3].veinsmobility 	minSpeed 	0.25744593116944
scalar RSUExampleScenario.node[3].veinsmobility 	maxSpeed 	18.999987974439
scalar RSUExampleScenario.node[3].veinsmobility 	totalDistance 	3409.8664856014
scalar RSUExampleScenario.node[3].veinsmobility 	totalCO2Emission 	707.30921590556
scalar RSUExampleScenario.node[4].veinsmobility 	startTime 	24.1
scalar RSUExampleScenario.node[4].veinsmobility 	totalTime 	226.9
scalar RSUExampleScenario.node[4].veinsmobility 	stopTime 	251.1
scalar RSUExampleScenario.node[4].veinsmobility 	minSpeed 	0.24754244052921
scalar RSUExampleScenario.node[4].veinsmobility 	maxSpeed 	18.99992600834
scalar RSUExampleScenario.node[4].veinsmobility 	totalDistance 	3409.1221151299
scalar RSUExampleScenario.node[4].veinsmobility 	totalCO2Emission 	703.93332603817
scalar RSUExampleScenario.node[5].veinsmobility 	startTime 	30.1
scalar RSUExampleScenario.node[5].veinsmobility 	totalTime 	227.1
scalar RSUExampleScenario.node[5].veinsmobility 	stopTime 	257.3
scalar RSUExampleScenario.node[5].veinsmobility 	minSpeed 	0.25324148977175
scalar RSUExampleScenario.node[5].veinsmobility 	maxSpeed 	18.999889777927
scalar RSUExampleScenario.node[5].veinsmobility 	totalDistance 	3409.4667237756
scalar RSUExampleScenario.node[5].veinsmobility 	totalCO2Emission 	705.76349383452
scalar RSUExampleScenario.node[6].veinsmobility 	startTime 	36.1
scalar RSUExampleScenario.node[6].veinsmobility 	totalTime 	227.1
scalar RSUExampleScenario.node[6].veinsmobility 	stopTime 	263.3
scalar RSUExampleScenario.node[6].veinsmobility 	minSpeed 	0.24956614080421
scalar RSUExampleScenario.node[6].veinsmobility 	maxSpeed 	18.999793875092
scalar RSUExampleScenario.node[6].veinsmobility 	totalDistance 	3409.7613486333
scalar RSUExampleScenario.node[6].veinsmobility 	totalCO2Emission 	704.95205723911
scalar RSUExampleScenario.node[7].veinsmobility 	startTime 	42.1
scalar RSUExampleScenario.node[7].veinsmobility 	totalTime 	227
scalar RSUExampleScenario.node[7].veinsmobility 	stopTime 	269.2
scalar RSUExampleScenario.node[7].veinsmobility 	minSpeed 	0.25492157569202
scalar RSUExampleScenario.node[7].veinsmobility 	maxSpeed 	18.99934148666
scalar RSUExampleScenario.node[7].veinsmobility 	totalDistance 	3409.2720403428
scalar RSUExampleScenario.node[7].veinsmobility 	totalCO2Emission 	700.35924333352
scalar RSUExampleScenario.node[8].veinsmobility 	startTime 	48.1
scalar RSUExampleScenario.node[8].veinsmobility 	totalTime 	226.9
scalar RSUExampleScenario.node[8].veinsmobility 	stopTime 	275.1
scalar RSUExampleScenario.node[8].veinsmobility 	minSpeed 	0.24721040337859
scalar RSUExampleScenario.node[8].veinsmobility 	maxSpeed 	18.999845483759
scalar RSUExampleScenario.node[8].veinsmobility 	totalDistance 	3409.5671607518
scalar RSUExampleScenario.node[8].veinsmobility 	totalCO2Emission 	705.66289227511
scalar RSUExampleScenario.node[9].veinsmobility 	startTime 	54.1
scalar RSUExampleScenario.node[9].veinsmobility 	totalTime 	226.8
scalar RSUExampleScenario.node[9].veinsmobility 	stopTime 	281
scalar RSUExampleScenario.node[9].veinsmobility 	minSpeed 	0.25281014301255
scalar RSUExampleScenario.node[9].veinsmobility 	maxSpeed 	18.999999369669
scalar RSUExampleScenario.node[9].veinsmobility 	totalDistance 	3409.576206815
scalar RSUExampleScenario.node[9].veinsmobility 	totalCO2Emission 	711.22231690131
scalar RSUExampleScenario.node[10].veinsmobility 	startTime 	60.1
scalar RSUExampleScenario.node[10].veinsmobility 	totalTime 	226.9
scalar RSUExampleScenario.node[10].veinsmobility 	stopTime 	287.1
scalar RSUExampleScenario.node[10].veinsmobility 	minSpeed 	0.25915796146262
scalar RSUExampleScenario.node[10].veinsmobility 	maxSpeed 	18.999900776858
scalar RSUExampleScenario.node[10].veinsmobility 	totalDistance 	3409.2505900636
scalar RSUExampleScenario.node[10].veinsmobility 	totalCO2Emission 	704.87172496686
scalar RSUExampleScenario.node[11].veinsmobility 	startTime 	66.1
scalar RSUExampleScenario.node[11].veinsmobility 	totalTime 	226.9
scalar RSUExampleScenario.node[11].veinsmobility 	stopTime 	293.1
scalar RSUExampleScenario.node[11].veinsmobility 	minSpeed 	0.25028748851107
scalar RSUExampleScenario.node[11].veinsmobility 	maxSpeed 	18.999665590599
scalar RSUExampleScenario.node[11].veinsmobility 	totalDistance 	3409.3774162607
scalar RSUExampleScenario.node[11].veinsmobility 	totalCO2Emission 	707.60931815663
scalar RSUExampleScenario.node[12].veinsmobility 	startTime 	72.1
scalar RSUExampleScenario.node[12].veinsmobility 	totalTime 	226.8
scalar RSUExampleScenario.node[12].veinsmobility 	stopTime 	299
scalar RSUExampleScenario.node[12].veinsmobility 	minSpeed 	0.25901542953355
scalar RSUExampleScenario.node[12].veinsmobility 	maxSpeed 	18.999736518716
scalar RSUExampleScenario.node[12].veinsmobility 	totalDistance 	3409.4195701205
scalar RSUExampleScenario.node[12].veinsmobility 	totalCO2Emission 	706.88305582261
scalar RSUExampleScenario.node[13].veinsmobility 	startTime 	78.1
scalar RSUExampleScenario.node[13].veinsmobility 	totalTime 	227
scalar RSUExampleScenario.node[13].veinsmobility 	stopTime 	305.2
scalar RSUExampleScenario.node[13].veinsmobility 	minSpeed 	0.25236108895624
scalar RSUExampleScenario.node[13].veinsmobility 	maxSpeed 	18.99928678524
scalar RSUExampleScenario.node[13].veinsmobility 	totalDistance 	3409.3548578111
scalar RSUExampleScenario.node[13].veinsmobility 	totalCO2Emission 	705.21577496761
scalar RSUExampleScenario.node[14].veinsmobility 	startTime 	84.1
scalar RSUExampleScenario.node[14].veinsmobility 	totalTime 	227.1
scalar RSUExampleScenario.node[14].veinsmobility 	stopTime 	311.3
scalar RSUExampleScenario.node[14].veinsmobility 	minSpeed 	0.25934342352627
scalar RSUExampleScenario.node[14].veinsmobility 	maxSpeed 	18.999678340049
scalar RSUExampleScenario.node[14].veinsmobility 	totalDistance 	3409.7521458782
scalar RSUExampleScenario.node[14].veinsmobility 	totalCO2Emission 	709.69456745028
scalar RSUExampleScenario.node[15].veinsmobility 	startTime 	90.1
scalar RSUExampleScenario.node[15].veinsmobility 	totalTime 	226.7
scalar RSUExampleScenario.node[15].veinsmobility 	stopTime 	316.9
scalar RSUExampleScenario.node[15].veinsmobility 	minSpeed 	0.24751748013939
scalar RSUExampleScenario.node[15].veinsmobility 	maxSpeed 	18.999948072671
scalar RSUExampleScenario.node[15].veinsmobility 	totalDistance 	3409.4759756551
scalar RSUExampleScenario.node[15].veinsmobility 	totalCO2Emission 	708.13528298078
scalar RSUExampleScenario.node[16].veinsmobility 	startTime 	96.1
scalar RSUExampleScenario.node[16].veinsmobility 	totalTime 	226.8
scalar RSUExampleScenario.node[16].veinsmobility 	stopTime 	323
scalar RSUExampleScenario.node[16].veinsmobility 	minSpeed 	0.25439775440702
scalar RSUExampleScenario.node[16].veinsmobility 	maxSpeed 	18.999787431371
scalar RSUExampleScenario.node[16].veinsmobility 	totalDistance 	3409.5817813495
scalar RSUExampleScenario.node[16].veinsmobility 	totalCO2Emission 	703.5357289672
scalar RSUExampleScenario.node[17].veinsmobility 	startTime 	102.1
scalar RSUExampleScenario.node[17].veinsmobility 	totalTime 	226.8
scalar RSUExampleScenario.node[17].veinsmobility 	stopTime 	329
scalar RSUExampleScenario.node[17].veinsmobility 	minSpeed 	0.25302862619329
scalar RSUExampleScenario.node[17].veinsmobility 	maxSpeed 	18.999830684077
scalar RSUExampleScenario.node[17].veinsmobility 	totalDistance 	3409.8361934655
scalar RSUExampleScenario.node[17].veinsmobility 	totalCO2Emission 	703.12020742799
scalar RSUExampleScenario.node[18].veinsmobility 	startTime 	108.1
scalar RSUExampleScenario.node[18].veinsmobility 	totalTime 	226.7
scalar RSUExampleScenario.node[18].veinsmobility 	stopTime 	334.9
scalar RSUExampleScenario.node[18].veinsmobility 	minSpeed 	0.24711799056921
scalar RSUExampleScenario.node[18].veinsmobility 	maxSpeed 	18.999986783213
scalar RSUExampleScenario.node[18].veinsmobility 	totalDistance 	3409.4289101298
scalar RSUExampleScenario.node[18].veinsmobility 	totalCO2Emission 	704.42108425852
scalar RSUExampleScenario.node[19].veinsmobility 	startTime 	114.1
scalar RSUExampleScenario.node[19].veinsmobility 	totalTime 	226.9
scalar RSUExampleScenario.node[19].veinsmobility 	stopTime 	341.1
scalar RSUExampleScenario.node[19].veinsmobility 	minSpeed 	0.25040345383133
scalar RSUExampleScenario.node[19].veinsmobility 	maxSpeed 	18.998971783489
scalar RSUExampleScenario.node[19].veinsmobility 	totalDistance 	3409.7240946062
scalar RSUExampleScenario.node[19].veinsmobility 	totalCO2Emission 	706.8681675492
scalar RSUExampleScenario.node[20].veinsmobility 	startTime 	120.1
scalar RSUExampleScenario.node[20].veinsmobility 	totalTime 	227
scalar RSUExampleScenario.node[20].veinsmobility 	stopTime 	347.2
scalar RSUExampleScenario.node[20].veinsmobility 	minSpeed 	0.253520684232
scalar RSUExampleScenario.node[20].veinsmobility 	maxSpeed 	18.999890920029
scalar RSUExampleScenario.node[20].veinsmobility 	totalDistance 	3409.8055057225
scalar RSUExampleScenario.node[20].veinsmobility 	totalCO2Emission 	710.00311373059
scalar RSUExampleScenario.node[21].veinsmobility 	startTime 	126.1
scalar RSUExampleScenario.node[21].veinsmobility 	totalTime 	226.6
scalar RSUExampleScenario.node[21].veinsmobility 	stopTime 	352.8
scalar RSUExampleScenario.node[21].veinsmobility 	minSpeed 	0.24844693957525
scalar RSUExampleScenario.node[21].veinsmobility 	maxSpeed 	18.999928188119
scalar RSUExampleScenario.node[21].veinsmobility 	totalDistance 	3409.4480452584
scalar RSUExampleScenario.node[21].veinsmobility 	totalCO2Emission 	708.1123486426
scalar RSUExampleScenario.node[22].veinsmobility 	startTime 	132.1
scalar RSUExampleScenario.node[22].veinsmobility 	totalTime 	226.8
scalar RSUExampleScenario.node[22].veinsmobility 	stopTime 	359
scalar RSUExampleScenario.node[22].veinsmobility 	minSpeed 	0.25136043736129
scalar RSUExampleScenario.node[22].veinsmobility 	maxSpeed 	18.999815686443
scalar RSUExampleScenario.node[22].veinsmobility 	totalDistance 	3409.2004656924
scalar RSUExampleScenario.node[22].veinsmobility 	totalCO2Emission 	706.0260234447
scalar RSUExampleScenario.node[23].veinsmobility 	startTime 	138.1
scalar RSUExampleScenario.node[23].veinsmobility 	totalTime 	226.9
scalar RSUExampleScenario.node[23].veinsmobility 	stopTime 	365.1
scalar RSUExampleScenario.node[23].veinsmobility 	minSpeed 	0.25307429715735
scalar RSUExampleScenario.node[23].veinsmobility 	maxSpeed 	18.999907815466
scalar RSUExampleScenario.node[23].veinsmobility 	totalDistance 	3409.6528068958
scalar RSUExampleScenario.node[23].veinsmobility 	totalCO2Emission 	706.25963887335
scalar RSUExampleScenario.node[24].veinsmobility 	startTime 	144.1
scalar RSUExampleScenario.node[24].veinsmobility 	totalTime 	227
scalar RSUExampleScenario.node[24].veinsmobility 	stopTime 	371.2
scalar RSUExampleScenario.node[24].veinsmobility 	minSpeed 	0.25056402346888
scalar RSUExampleScenario.node[24].veinsmobility 	maxSpeed 	18.999816257146
scalar RSUExampleScenario.node[24].veinsmobility 	totalDistance 	3409.3409737071
scalar RSUExampleScenario.node[24].veinsmobility 	totalCO2Emission 	711.1171479156
scalar RSUExampleScenario.node[25].veinsmobility 	startTime 	150.1
scalar RSUExampleScenario.node[25].veinsmobility 	totalTime 	226.8
scalar RSUExampleScenario.node[25].veinsmobility 	stopTime 	377
scalar RSUExampleScenario.node[25].veinsmobility 	minSpeed 	0.2578856617182
scalar RSUExampleScenario.node[25].veinsmobility 	maxSpeed 	18.999798158919
scalar RSUExampleScenario.node[25].veinsmobility 	totalDistance 	3409.1350069802
scalar RSUExampleScenario.node[25].veinsmobility 	totalCO2Emission 	705.14012208278
scalar RSUExampleScenario.node[26].veinsmobility 	startTime 	156.1
scalar RSUExampleScenario.node[26].veinsmobility 	totalTime 	226.8
scalar RSUExampleScenario.node[26].veinsmobility 	stopTime 	383
scalar RSUExampleScenario.node[26].veinsmobility 	minSpeed 	0.24904783299589
scalar RSUExampleScenario.node[26].veinsmobility 	maxSpeed 	18.999685298386
scalar RSUExampleScenario.node[26].veinsmobility 	totalDistance 	3409.7508046644
scalar RSUExampleScenario.node[26].veinsmobility 	totalCO2Emission 	705.21381140627
scalar RSUExampleScenario.node[27].veinsmobility 	startTime 	162.1
scalar RSUExampleScenario.node[27].veinsmobility 	totalTime 	226.8
scalar RSUExampleScenario.node[27].veinsmobility 	stopTime 	389
scalar RSUExampleScenario.node[27].veinsmobility 	minSpeed 	0.25222567465552
scalar RSUExampleScenario.node[27].veinsmobility 	maxSpeed 	18.999884600164
scalar RSUExampleScenario.node[27].veinsmobility 	totalDistance 	3409.7582717485
scalar RSUExampleScenario.node[27].veinsmobility 	totalCO2Emission 	707.10438675229
scalar RSUExampleScenario.node[28].veinsmobility 	startTime 	168.1
scalar RSUExampleScenario.node[28].veinsmobility 	totalTime 	227
scalar RSUExampleScenario.node[28].veinsmobility 	stopTime 	395.2
scalar RSUExampleScenario.node[28].veinsmobility 	minSpeed 	0.25360106110782
scalar RSUExampleScenario.node[28].veinsmobility 	maxSpeed 	18.99995348044
scalar RSUExampleScenario.node[28].veinsmobility 	totalDistance 	3409.631554621
scalar RSUExampleScenario.node[28].veinsmobility 	totalCO2Emission 	712.88888182122
scalar RSUExampleScenario.node[29].veinsmobility 	startTime 	174.1
scalar RSUExampleScenario.node[29].veinsmobility 	totalTime 	226.7
scalar RSUExampleScenario.node[29].veinsmobility 	stopTime 	400.9
scalar RSUExampleScenario.node[29].veinsmobility 	minSpeed 	0.25828118789266
scalar RSUExampleScenario.node[29].veinsmobility 	maxSpeed 	18.999714057934
scalar RSUExampleScenario.node[29].veinsmobility 	totalDistance 	3409.8090410543
scalar RSUExampleScenario.node[29].veinsmobility 	totalCO2Emission 	706.3160608095
scalar RSUExampleScenario.node[30].veinsmobility 	startTime 	180.1
scalar RSUExampleScenario.node[30].veinsmobility 	totalTime 	226.5
scalar RSUExampleScenario.node[30].veinsmobility 	stopTime 	406.7
scalar RSUExampleScenario.node[30].veinsmobility 	minSpeed 	0.25379223705549
scalar RSUExampleScenario.node[30].veinsmobility 	maxSpeed 	18.999701267441
scalar RSUExampleScenario.node[30].veinsmobility 	totalDistance 	3409.5268061337
scalar RSUExampleScenario.node[30].veinsmobility 	totalCO2Emission 	705.26642294058
scalar RSUExampleScenario.node[31].veinsmobility 	startTime 	186.1
scalar RSUExampleScenario.node[31].veinsmobility 	totalTime 	226.9
scalar RSUExampleScenario.node[31].veinsmobility 	stopTime 	413.1
scalar RSUExampleScenario.node[31].veinsmobility 	minSpeed 	0.25138985410333
scalar RSUExampleScenario.node[31].veinsmobility 	maxSpeed 	18.99989984409
scalar RSUExampleScenario.node[31].veinsmobility 	totalDistance 	3409.2706163894
scalar RSUExampleScenario.node[31].veinsmobility 	totalCO2Emission 	703.52597550617
scalar RSUExampleScenario.node[32].veinsmobility 	startTime 	192.1
scalar RSUExampleScenario.node[32].veinsmobility 	totalTime 	226.9
scalar RSUExampleScenario.node[32].veinsmobility 	stopTime 	419.1
scalar RSUExampleScenario.node[32].veinsmobility 	minSpeed 	0.25162683349499
scalar RSUExampleScenario.node[32].veinsmobility 	maxSpeed 	18.999894816335
scalar RSUExampleScenario.node[32].veinsmobility 	totalDistance 	3409.1307091297
scalar RSUExampleScenario.node[32].veinsmobility 	totalCO2Emission 	703.58457258801
scalar RSUExampleScenario.node[33].veinsmobility 	startTime 	198.1
scalar RSUExampleScenario.node[33].veinsmobility 	totalTime 	226.7
scalar RSUExampleScenario.node[33].veinsmobility 	stopTime 	424.9
scalar RSUExampleScenario.node[33].veinsmobility 	minSpeed 	0.25919327464397
scalar RSUExampleScenario.node[33].veinsmobility 	maxSpeed 	18.999811083712
scalar RSUExampleScenario.node[33].veinsmobility 	totalDistance 	3409.1632893657
scalar RSUExampleScenario.node[33].veinsmobility 	totalCO2Emission 	703.40451035624
scalar RSUExampleScenario.node[34].veinsmobility 	startTime 	204.1
scalar RSUExampleScenario.node[34].veinsmobility 	totalTime 	226.9
scalar RSUExampleScenario.node[34].veinsmobility 	stopTime 	431.1
scalar RSUExampleScenario.node[34].veinsmobility 	minSpeed 	0.24795318876021
scalar RSUExampleScenario.node[34].veinsmobility 	maxSpeed 	18.99980901205
scalar RSUExampleScenario.node[34].veinsmobility 	totalDistance 	3409.3667244729
scalar RSUExampleScenario.node[34].veinsmobility 	totalCO2Emission 	710.88841695946
scalar RSUExampleScenario.node[35].veinsmobility 	startTime 	210.1
scalar RSUExampleScenario.node[35].veinsmobility 	totalTime 	227.1
scalar RSUExampleScenario.node[35].veinsmobility 	stopTime 	437.3
scalar RSUExampleScenario.node[35].veinsmobility 	minSpeed 	0.25609834229457
scalar RSUExampleScenario.node[35].veinsmobility 	maxSpeed 	18.999981985888
scalar RSUExampleScenario.node[35].veinsmobility 	totalDistance 	3409.1121160283
scalar RSUExampleScenario.node[35].veinsmobility 	totalCO2Emission 	713.12192225002
scalar RSUExampleScenario.node[36].veinsmobility 	startTime 	216.1
scalar RSUExampleScenario.node[36].veinsmobility 	totalTime 	226.9
scalar RSUExampleScenario.node[36].veinsmobility 	stopTime 	443.1
scalar RSUExampleScenario.node[36].veinsmobility 	minSpeed 	0.25722158085182
scalar RSUExampleScenario.node[36].veinsmobility 	maxSpeed 	18.999819709179
scalar RSUExampleScenario.node[36].veinsmobility 	totalDistance 	3409.387523661
scalar RSUExampleScenario.node[36].veinsmobility 	totalCO2Emission 	706.57685915969
scalar RSUExampleScenario.node[37].veinsmobility 	startTime 	222.1
scalar RSUExampleScenario.node[37].veinsmobility 	totalTime 	227
scalar RSUExampleScenario.node[37].veinsmobility 	stopTime 	449.2
scalar RSUExampleScenario.node[37].veinsmobility 	minSpeed 	0.25014709107415
scalar RSUExampleScenario.node[37].veinsmobility 	maxSpeed 	18.999631012061
scalar RSUExampleScenario.node[37].veinsmobility 	totalDistance 	3409.7201296297
scalar RSUExampleScenario.node[37].veinsmobility 	totalCO2Emission 	711.04781366985
scalar RSUExampleScenario.node[38].veinsmobility 	startTime 	228.1
scalar RSUExampleScenario.node[38].veinsmobility 	totalTime 	226.8
scalar RSUExampleScenario.node[38].veinsmobility 	stopTime 	455
scalar RSUExampleScenario.node[38].veinsmobility 	minSpeed 	0.24909419438173
scalar RSUExampleScenario.node[38].veinsmobility 	maxSpeed 	18.999447662842
scalar RSUExampleScenario.node[38].veinsmobility 	totalDistance 	3409.3105236382
scalar RSUExampleScenario.node[38].veinsmobility 	totalCO2Emission 	707.30560445729
scalar RSUExampleScenario.node[39].veinsmobility 	startTime 	234.1
scalar RSUExampleScenario.node[39].veinsmobility 	totalTime 	227.1
scalar RSUExampleScenario.node[39].veinsmobility 	stopTime 	461.3
scalar RSUExampleScenario.node[39].veinsmobility 	minSpeed 	0.24862287726696
scalar RSUExampleScenario.node[39].veinsmobility 	maxSpeed 	18.999838505869
scalar RSUExampleScenario.node[39].veinsmobility 	totalDistance 	3409.2719457973
scalar RSUExampleScenario.node[39].veinsmobility 	totalCO2Emission 	707.79471681113
scalar RSUExampleScenario.node[40].veinsmobility 	startTime 	240.1
scalar RSUExampleScenario.node[40].veinsmobility 	totalTime 	226.9
scalar RSUExampleScenario.node[40].veinsmobility 	stopTime 	467.1
scalar RSUExampleScenario.node[40].veinsmobility 	minSpeed 	0.24735821748851
scalar RSUExampleScenario.node[40].veinsmobility 	maxSpeed 	18.999572746011
scalar RSUExampleScenario.node[40].veinsmobility 	totalDistance 	3409.2671487172
scalar RSUExampleScenario.node[40].veinsmobility 	totalCO2Emission 	698.69778501253
scalar RSUExampleScenario.node[41].veinsmobility 	startTime 	246.1
scalar RSUExampleScenario.node[41].veinsmobility 	totalTime 	227
scalar RSUExampleScenario.node[41].veinsmobility 	stopTime 	473.2
scalar RSUExampleScenario.node[41].veinsmobility 	minSpeed 	0.24916186329001
scalar RSUExampleScenario.node[41].veinsmobility 	maxSpeed 	18.999898868552
scalar RSUExampleScenario.node[41].veinsmobility 	totalDistance 	3409.4861397183
scalar RSUExampleScenario.node[41].veinsmobility 	totalCO2Emission 	707.81746382812
scalar RSUExampleScenario.node[42].veinsmobility 	startTime 	252.1
scalar RSUExampleScenario.node[42].veinsmobility 	totalTime 	227
scalar RSUExampleScenario.node[42].veinsmobility 	stopTime 	479.2
scalar RSUExampleScenario.node[42].veinsmobility 	minSpeed 	0.24722628642735
scalar RSUExampleScenario.node[42].veinsmobility 	maxSpeed 	18.999134543245
scalar RSUExampleScenario.node[42].veinsmobility 	totalDistance 	3409.7485866559
scalar RSUExampleScenario.node[42].veinsmobility 	totalCO2Emission 	705.4264774415
scalar RSUExampleScenario.node[43].veinsmobility 	startTime 	258.1
scalar RSUExampleScenario.node[43].veinsmobility 	totalTime 	227
scalar RSUExampleScenario.node[43].veinsmobility 	stopTime 	485.2
scalar RSUExampleScenario.node[43].veinsmobility 	minSpeed 	0.25440139031829
scalar RSUExampleScenario.node[43].veinsmobility 	maxSpeed 	18.999654222338
scalar RSUExampleScenario.node[43].veinsmobility 	totalDistance 	3409.1061231778
scalar RSUExampleScenario.node[43].veinsmobility 	totalCO2Emission 	706.51635072484
scalar RSUExampleScenario.node[44].veinsmobility 	startTime 	264.1
scalar RSUExampleScenario.node[44].veinsmobility 	totalTime 	227
scalar RSUExampleScenario.node[44].veinsmobility 	stopTime 	491.2
scalar RSUExampleScenario.node[44].veinsmobility 	minSpeed 	0.25128353596735
scalar RSUExampleScenario.node[44].veinsmobility 	maxSpeed 	18.999499458747
scalar RSUExampleScenario.node[44].veinsmobility 	totalDistance 	3409.5356010035
scalar RSUExampleScenario.node[44].veinsmobility 	totalCO2Emission 	705.28349619753
scalar RSUExampleScenario.node[45].veinsmobility 	startTime 	270.1
scalar RSUExampleScenario.node[45].veinsmobility 	totalTime 	226.9
scalar RSUExampleScenario.node[45].veinsmobility 	stopTime 	497.1
scalar RSUExampleScenario.node[45].veinsmobility 	minSpeed 	0.25230514592538
scalar RSUExampleScenario.node[45].veinsmobility 	maxSpeed 	18.999372719133
scalar RSUExampleScenario.node[45].veinsmobility 	totalDistance 	3409.5785015385
scalar RSUExampleScenario.node[45].veinsmobility 	totalCO2Emission 	705.38959629994
scalar RSUExampleScenario.node[46].veinsmobility 	startTime 	276.1
scalar RSUExampleScenario.node[46].veinsmobility 	totalTime 	227
scalar RSUExampleScenario.node[46].veinsmobility 	stopTime 	503.2
scalar RSUExampleScenario.node[46].veinsmobility 	minSpeed 	0.25509980862308
scalar RSUExampleScenario.node[46].veinsmobility 	maxSpeed 	18.999940632468
scalar RSUExampleScenario.node[46].veinsmobility 	totalDistance 	3409.6521458648
scalar RSUExampleScenario.node[46].veinsmobility 	totalCO2Emission 	709.09580895174
scalar RSUExampleScenario.node[47].veinsmobility 	startTime 	282.1
scalar RSUExampleScenario.node[47].veinsmobility 	totalTime 	226.8
scalar RSUExampleScenario.node[47].veinsmobility 	stopTime 	509
scalar RSUExampleScenario.node[47].veinsmobility 	minSpeed 	0.25304397744872
scalar RSUExampleScenario.node[47].veinsmobility 	maxSpeed 	18.999976784184
scalar RSUExampleScenario.node[47].veinsmobility 	totalDistance 	3409.3108303946
scalar RSUExampleScenario.node[47].veinsmobility 	totalCO2Emission 	704.25394895411
scalar RSUExampleScenario.node[48].veinsmobility 	startTime 	288.1
scalar RSUExampleScenario.node[48].veinsmobility 	totalTime 	227.4
scalar RSUExampleScenario.node[48].veinsmobility 	stopTime 	515.6
scalar RSUExampleScenario.node[48].veinsmobility 	minSpeed 	0.25354983883817
scalar RSUExampleScenario.node[48].veinsmobility 	maxSpeed 	18.99998507401
scalar RSUExampleScenario.node[48].veinsmobility 	totalDistance 	3409.2792337111
scalar RSUExampleScenario.node[48].veinsmobility 	totalCO2Emission 	710.55819671921
scalar RSUExampleScenario.node[49].veinsmobility 	startTime 	294.1
scalar RSUExampleScenario.node[49].veinsmobility 	totalTime 	226.8
scalar RSUExampleScenario.node[49].veinsmobility 	stopTime 	521
scalar RSUExampleScenario.node[49].veinsmobility 	minSpeed 	0.25400306381052
scalar RSUExampleScenario.node[49].veinsmobility 	maxSpeed 	18.999981054119
scalar RSUExampleScenario.node[49].veinsmobility 	totalDistance 	3409.51737768
scalar RSUExampleScenario.node[49].veinsmobility 	totalCO2Emission 	707.76425961591
scalar RSUExampleScenario.node[50].veinsmobility 	startTime 	300.1
scalar RSUExampleScenario.node[50].veinsmobility 	totalTime 	226.8
scalar RSUExampleScenario.node[50].veinsmobility 	stopTime 	527
scalar RSUExampleScenario.node[50].veinsmobility 	minSpeed 	0.25532660232671
scalar RSUExampleScenario.node[50].veinsmobility 	maxSpeed 	18.999980055972
scalar RSUExampleScenario.node[50].veinsmobility 	totalDistance 	3409.3399091983
scalar RSUExampleScenario.node[50].veinsmobility 	totalCO2Emission 	704.06536165807
scalar RSUExampleScenario.node[51].veinsmobility 	startTime 	306.1
scalar RSUExampleScenario.node[51].veinsmobility 	totalTime 	226.8
scalar RSUExampleScenario.node[51].veinsmobility 	stopTime 	533
scalar RSUExampleScenario.node[51].veinsmobility 	minSpeed 	0.25090439667646
scalar RSUExampleScenario.node[51].veinsmobility 	maxSpeed 	18.999703360836
scalar RSUExampleScenario.node[51].veinsmobility 	totalDistance 	3409.3813902363
scalar RSUExampleScenario.node[51].veinsmobility 	totalCO2Emission 	708.17925270032
scalar RSUExampleScenario.node[52].veinsmobility 	startTime 	312.1
scalar RSUExampleScenario.node[52].veinsmobility 	totalTime 	227
scalar RSUExampleScenario.node[52].veinsmobility 	stopTime 	539.2
scalar RSUExampleScenario.node[52].veinsmobility 	minSpeed 	0.25551416168315
scalar RSUExampleScenario.node[52].veinsmobility 	maxSpeed 	18.999806192769
scalar RSUExampleScenario.node[52].veinsmobility 	totalDistance 	3409.3817876213
scalar RSUExampleScenario.node[52].veinsmobility 	totalCO2Emission 	708.88046835093
scalar RSUExampleScenario.node[53].veinsmobility 	startTime 	318.1
scalar RSUExampleScenario.node[53].veinsmobility 	totalTime 	227
scalar RSUExampleScenario.node[53].veinsmobility 	stopTime 	545.2
scalar RSUExampleScenario.node[53].veinsmobility 	minSpeed 	0.25718058268633
scalar RSUExampleScenario.node[53].veinsmobility 	maxSpeed 	18.999881608568
scalar RSUExampleScenario.node[53].veinsmobility 	totalDistance 	3409.286392077
scalar RSUExampleScenario.node[53].veinsmobility 	totalCO2Emission 	708.66222015909
scalar RSUExampleScenario.node[54].veinsmobility 	startTime 	324.1
scalar RSUExampleScenario.node[54].veinsmobility 	totalTime 	227
scalar RSUExampleScenario.node[54].veinsmobility 	stopTime 	551.2
scalar RSUExampleScenario.node[54].veinsmobility 	minSpeed 	0.25302297954354
scalar RSUExampleScenario.node[54].veinsmobility 	maxSpeed 	18.999489135398
scalar RSUExampleScenario.node[54].veinsmobility 	totalDistance 	3409.2142540075
scalar RSUExampleScenario.node[54].veinsmobility 	totalCO2Emission 	706.04339540315
scalar RSUExampleScenario.node[55].veinsmobility 	startTime 	330.1
scalar RSUExampleScenario.node[55].veinsmobility 	totalTime 	227.5
scalar RSUExampleScenario.node[55].veinsmobility 	stopTime 	557.7
scalar RSUExampleScenario.node[55].veinsmobility 	minSpeed 	0.24878516780282
scalar RSUExampleScenario.node[55].veinsmobility 	maxSpeed 	18.999894582061
scalar RSUExampleScenario.node[55].veinsmobility 	totalDistance 	3409.9644361931
scalar RSUExampleScenario.node[55].veinsmobility 	totalCO2Emission 	705.62407997919
scalar RSUExampleScenario.node[56].veinsmobility 	startTime 	336.1
scalar RSUExampleScenario.node[56].veinsmobility 	totalTime 	226.9
scalar RSUExampleScenario.node[56].veinsmobility 	stopTime 	563.1
scalar RSUExampleScenario.node[56].veinsmobility 	minSpeed 	0.24978316941159
scalar RSUExampleScenario.node[56].veinsmobility 	maxSpeed 	18.999809968215
scalar RSUExampleScenario.node[56].veinsmobility 	totalDistance 	3409.5814863956
scalar RSUExampleScenario.node[56].veinsmobility 	totalCO2Emission 	708.14504442787
scalar RSUExampleScenario.node[57].veinsmobility 	startTime 	342.1
scalar RSUExampleScenario.node[57].veinsmobility 	totalTime 	226.9
scalar RSUExampleScenario.node[57].veinsmobility 	stopTime 	569.1
scalar RSUExampleScenario.node[57].veinsmobility 	minSpeed 	0.24828711455734
scalar RSUExampleScenario.node[57].veinsmobility 	maxSpeed 	18.999942917973
scalar RSUExampleScenario.node[57].veinsmobility 	totalDistance 	3409.4498650907
scalar RSUExampleScenario.node[57].veinsmobility 	totalCO2Emission 	710.10006727501
scalar RSUExampleScenario.node[58].veinsmobility 	startTime 	348.1
scalar RSUExampleScenario.node[58].veinsmobility 	totalTime 	227.1
scalar RSUExampleScenario.node[58].veinsmobility 	stopTime 	575.3
scalar RSUExampleScenario.node[58].veinsmobility 	minSpeed 	0.24802020162507
scalar RSUExampleScenario.node[58].veinsmobility 	maxSpeed 	18.999945166218
scalar RSUExampleScenario.node[58].veinsmobility 	totalDistance 	3409.3012648337
scalar RSUExampleScenario.node[58].veinsmobility 	totalCO2Emission 	705.14321386942
scalar RSUExampleScenario.node[59].veinsmobility 	startTime 	354.1
scalar RSUExampleScenario.node[59].veinsmobility 	totalTime 	227
scalar RSUExampleScenario.node[59].veinsmobility 	stopTime 	581.2
scalar RSUExampleScenario.node[59].veinsmobility 	minSpeed 	0.24745691085909
scalar RSUExampleScenario.node[59].veinsmobility 	maxSpeed 	18.999997770188
scalar RSUExampleScenario.node[59].veinsmobility 	totalDistance 	3409.4545044112
scalar RSUExampleScenario.node[59].veinsmobility 	totalCO2Emission 	703.49183608616
scalar RSUExampleScenario.node[60].veinsmobility 	startTime 	360.1
scalar RSUExampleScenario.node[60].veinsmobility 	totalTime 	226.6
scalar RSUExampleScenario.node[60].veinsmobility 	stopTime 	586.8
scalar RSUExampleScenario.node[60].veinsmobility 	minSpeed 	0.25531402844936
scalar RSUExampleScenario.node[60].veinsmobility 	maxSpeed 	18.999557526815
scalar RSUExampleScenario.node[60].veinsmobility 	totalDistance 	3409.3465373131
scalar RSUExampleScenario.node[60].veinsmobility 	totalCO2Emission 	706.31196641856
scalar RSUExampleScenario.node[61].veinsmobility 	startTime 	366.1
scalar RSUExampleScenario.node[61].veinsmobility 	totalTime 	226.9
scalar RSUExampleScenario.node[61].veinsmobility 	stopTime 	593.1
scalar RSUExampleScenario.node[61].veinsmobility 	minSpeed 	0.25396705044596
scalar RSUExampleScenario.node[61].veinsmobility 	maxSpeed 	18.999411921983
scalar RSUExampleScenario.node[61].veinsmobility 	totalDistance 	3409.5670225123
scalar RSUExampleScenario.node[61].veinsmobility 	totalCO2Emission 	710.60718222891
scalar RSUExampleScenario.node[62].veinsmobility 	startTime 	372.1
scalar RSUExampleScenario.node[62].veinsmobility 	totalTime 	226.7
scalar RSUExampleScenario.node[62].veinsmobility 	stopTime 	598.9
scalar RSUExampleScenario.node[62].veinsmobility 	minSpeed 	0.25793460351322
scalar RSUExampleScenario.node[62].veinsmobility 	maxSpeed 	18.999748736841
scalar RSUExampleScenario.node[62].veinsmobility 	totalDistance 	3409.6932219251
scalar RSUExampleScenario.node[62].veinsmobility 	totalCO2Emission 	709.37304243729
scalar RSUExampleScenario.node[63].veinsmobility 	startTime 	378.1
scalar RSUExampleScenario.node[63].veinsmobility 	totalTime 	226.8
scalar RSUExampleScenario.node[63].veinsmobility 	stopTime 	605
scalar RSUExampleScenario.node[63].veinsmobility 	minSpeed 	0.25116167098121
scalar RSUExampleScenario.node[63].veinsmobility 	maxSpeed 	18.999827350876
scalar RSUExampleScenario.node[63].veinsmobility 	totalDistance 	3409.11513634
scalar RSUExampleScenario.node[63].veinsmobility 	totalCO2Emission 	704.93374305694
scalar RSUExampleScenario.node[64].veinsmobility 	startTime 	384.1
scalar RSUExampleScenario.node[64].veinsmobility 	totalTime 	226.9
scalar RSUExampleScenario.node[64].veinsmobility 	stopTime 	611.1
scalar RSUExampleScenario.node[64].veinsmobility 	minSpeed 	0.24721453119605
scalar RSUExampleScenario.node[64].veinsmobility 	maxSpeed 	18.99977070719
scalar RSUExampleScenario.node[64].veinsmobility 	totalDistance 	3409.3542526331
scalar RSUExampleScenario.node[64].veinsmobility 	totalCO2Emission 	707.6687587004
scalar RSUExampleScenario.node[65].veinsmobility 	startTime 	390.1
scalar RSUExampleScenario.node[65].veinsmobility 	totalTime 	226.9
scalar RSUExampleScenario.node[65].veinsmobility 	stopTime 	617.1
scalar RSUExampleScenario.node[65].veinsmobility 	minSpeed 	0.24709925493854
scalar RSUExampleScenario.node[65].veinsmobility 	maxSpeed 	18.999853054085
scalar RSUExampleScenario.node[65].veinsmobility 	totalDistance 	3409.6015014532
scalar RSUExampleScenario.node[65].veinsmobility 	totalCO2Emission 	708.6082123221
scalar RSUExampleScenario.node[66].veinsmobility 	startTime 	396.1
scalar RSUExampleScenario.node[66].veinsmobility 	totalTime 	227.2
scalar RSUExampleScenario.node[66].veinsmobility 	stopTime 	623.4
scalar RSUExampleScenario.node[66].veinsmobility 	minSpeed 	0.25352291025757
scalar RSUExampleScenario.node[66].veinsmobility 	maxSpeed 	18.999970962016
scalar RSUExampleScenario.node[66].veinsmobility 	totalDistance 	3410.0039419834
scalar RSUExampleScenario.node[66].veinsmobility 	totalCO2Emission 	711.21384957235
scalar RSUExampleScenario.node[67].veinsmobility 	startTime 	402.1
scalar RSUExampleScenario.node[67].veinsmobility 	totalTime 	226.8
scalar RSUExampleScenario.node[67].veinsmobility 	stopTime 	629
scalar RSUExampleScenario.node[67].veinsmobility 	minSpeed 	0.25167058493919
scalar RSUExampleScenario.node[67].veinsmobility 	maxSpeed 	18.999586541129
scalar RSUExampleScenario.node[67].veinsmobility 	totalDistance 	3409.4186083004
scalar RSUExampleScenario.node[67].veinsmobility 	totalCO2Emission 	704.67341579739
scalar RSUExampleScenario.node[68].veinsmobility 	startTime 	408.1
scalar RSUExampleScenario.node[68].veinsmobility 	totalTime 	226.7
scalar RSUExampleScenario.node[68].veinsmobility 	stopTime 	634.9
scalar RSUExampleScenario.node[68].veinsmobility 	minSpeed 	0.2596058319984
scalar RSUExampleScenario.node[68].veinsmobility 	maxSpeed 	18.999725787989
scalar RSUExampleScenario.node[68].veinsmobility 	totalDistance 	3409.5886388538
scalar RSUExampleScenario.node[68].veinsmobility 	totalCO2Emission 	706.04179626439
scalar RSUExampleScenario.node[69].veinsmobility 	startTime 	414.1
scalar RSUExampleScenario.node[69].veinsmobility 	totalTime 	227
scalar RSUExampleScenario.node[69].veinsmobility 	stopTime 	641.2
scalar RSUExampleScenario.node[69].veinsmobility 	minSpeed 	0.25302602031059
scalar RSUExampleScenario.node[69].veinsmobility 	maxSpeed 	18.999998539085
scalar RSUExampleScenario.node[69].veinsmobility 	totalDistance 	3409.6604382358
scalar RSUExampleScenario.node[69].veinsmobility 	totalCO2Emission 	705.91492162164
scalar RSUExampleScenario.node[70].veinsmobility 	startTime 	420.1
scalar RSUExampleScenario.node[70].veinsmobility 	totalTime 	226.9
scalar RSUExampleScenario.node[70].veinsmobility 	stopTime 	647.1
scalar RSUExampleScenario.node[70].veinsmobility 	minSpeed 	0.25452074710862
scalar RSUExampleScenario.node[70].veinsmobility 	maxSpeed 	18.999989413379
scalar RSUExampleScenario.node[70].veinsmobility 	totalDistance 	3409.3106463048
scalar RSUExampleScenario.node[70].veinsmobility 	totalCO2Emission 	706.43232273858
scalar RSUExampleScenario.node[71].veinsmobility 	startTime 	426.1
scalar RSUExampleScenario.node[71].veinsmobility 	totalTime 	227.2
scalar RSUExampleScenario.node[71].veinsmobility 	stopTime 	653.4
scalar RSUExampleScenario.node[71].veinsmobility 	minSpeed 	0.24919185167318
scalar RSUExampleScenario.node[71].veinsmobility 	maxSpeed 	18.999996078056
scalar RSUExampleScenario.node[71].veinsmobility 	totalDistance 	3409.3873627703
scalar RSUExampleScenario.node[71].veinsmobility 	totalCO2Emission 	709.58006320069
scalar RSUExampleScenario.node[72].veinsmobility 	startTime 	432.1
scalar RSUExampleScenario.node[72].veinsmobility 	totalTime 	226.6
scalar RSUExampleScenario.node[72].veinsmobility 	stopTime 	658.8
scalar RSUExampleScenario.node[72].veinsmobility 	minSpeed 	0.24760485112597
scalar RSUExampleScenario.node[72].veinsmobility 	maxSpeed 	18.999812239646
scalar RSUExampleScenario.node[72].veinsmobility 	totalDistance 	3408.998898071
scalar RSUExampleScenario.node[72].veinsmobility 	totalCO2Emission 	705.25399051297
scalar RSUExampleScenario.node[73].veinsmobility 	startTime 	438.1
scalar RSUExampleScenario.node[73].veinsmobility 	totalTime 	227
scalar RSUExampleScenario.node[73].veinsmobility 	stopTime 	665.2
scalar RSUExampleScenario.node[73].veinsmobility 	minSpeed 	0.24897305293055
scalar RSUExampleScenario.node[73].veinsmobility 	maxSpeed 	18.999765533393
scalar RSUExampleScenario.node[73].veinsmobility 	totalDistance 	3409.7809603844
scalar RSUExampleScenario.node[73].veinsmobility 	totalCO2Emission 	710.05541313672
scalar RSUExampleScenario.node[74].veinsmobility 	startTime 	444.1
scalar RSUExampleScenario.node[74].veinsmobility 	totalTime 	226.8
scalar RSUExampleScenario.node[74].veinsmobility 	stopTime 	671
scalar RSUExampleScenario.node[74].veinsmobility 	minSpeed 	0.25959813575214
scalar RSUExampleScenario.node[74].veinsmobility 	maxSpeed 	18.999937954901
scalar RSUExampleScenario.node[74].veinsmobility 	totalDistance 	3409.2350367841
scalar RSUExampleScenario.node[74].veinsmobility 	totalCO2Emission 	705.28884568175
scalar RSUExampleScenario.node[75].veinsmobility 	startTime 	450.1
scalar RSUExampleScenario.node[75].veinsmobility 	totalTime 	227.1
scalar RSUExampleScenario.node[75].veinsmobility 	stopTime 	677.3
scalar RSUExampleScenario.node[75].veinsmobility 	minSpeed 	0.248432877969
scalar RSUExampleScenario.node[75].veinsmobility 	maxSpeed 	18.99941715901
scalar RSUExampleScenario.node[75].veinsmobility 	totalDistance 	3409.2825633369
scalar RSUExampleScenario.node[75].veinsmobility 	totalCO2Emission 	707.05624677512
scalar RSUExampleScenario.node[76].veinsmobility 	startTime 	456.1
scalar RSUExampleScenario.node[76].veinsmobility 	totalTime 	227
scalar RSUExampleScenario.node[76].veinsmobility 	stopTime 	683.2
scalar RSUExampleScenario.node[76].veinsmobility 	minSpeed 	0.25858352492936
scalar RSUExampleScenario.node[76].veinsmobility 	maxSpeed 	18.99955379447
scalar RSUExampleScenario.node[76].veinsmobility 	totalDistance 	3409.5105676696
scalar RSUExampleScenario.node[76].veinsmobility 	totalCO2Emission 	708.45030677879
scalar RSUExampleScenario.node[77].veinsmobility 	startTime 	462.1
scalar RSUExampleScenario.node[77].veinsmobility 	totalTime 	227
scalar RSUExampleScenario.node[77].veinsmobility 	stopTime 	689.2
scalar RSUExampleScenario.node[77].veinsmobility 	minSpeed 	0.25949148009485
scalar RSUExampleScenario.node[77].veinsmobility 	maxSpeed 	18.999536650139
scalar RSUExampleScenario.node[77].veinsmobility 	totalDistance 	3409.5095597394
scalar RSUExampleScenario.node[77].veinsmobility 	totalCO2Emission 	711.80995311021
scalar RSUExampleScenario.node[78].veinsmobility 	startTime 	468.1
scalar RSUExampleScenario.node[78].veinsmobility 	totalTime 	227.1
scalar RSUExampleScenario.node[78].veinsmobility 	stopTime 	695.3
scalar RSUExampleScenario.node[78].veinsmobility 	minSpeed 	0.25869156962377
scalar RSUExampleScenario.node[78].veinsmobility 	maxSpeed 	18.999764162283
scalar RSUExampleScenario.node[78].veinsmobility 	totalDistance 	3409.270137473
scalar RSUExampleScenario.node[78].veinsmobility 	totalCO2Emission 	709.81396437186
scalar RSUExampleScenario.node[79].veinsmobility 	startTime 	474.1
scalar RSUExampleScenario.node[79].veinsmobility 	totalTime 	226.9
scalar RSUExampleScenario.node[79].veinsmobility 	stopTime 	701.1
scalar RSUExampleScenario.node[79].veinsmobility 	minSpeed 	0.25931402845308
scalar RSUExampleScenario.node[79].veinsmobility 	maxSpeed 	18.999908836707
scalar RSUExampleScenario.node[79].veinsmobility 	totalDistance 	3409.2113007464
scalar RSUExampleScenario.node[79].veinsmobility 	totalCO2Emission 	708.24634444697
scalar RSUExampleScenario.node[80].veinsmobility 	startTime 	480.1
scalar RSUExampleScenario.node[80].veinsmobility 	totalTime 	226.7
scalar RSUExampleScenario.node[80].veinsmobility 	stopTime 	706.9
scalar RSUExampleScenario.node[80].veinsmobility 	minSpeed 	0.24926767613832
scalar RSUExampleScenario.node[80].veinsmobility 	maxSpeed 	18.999994207767
scalar RSUExampleScenario.node[80].veinsmobility 	totalDistance 	3409.6347823519
scalar RSUExampleScenario.node[80].veinsmobility 	totalCO2Emission 	706.47066232099
scalar RSUExampleScenario.node[81].veinsmobility 	startTime 	486.1
scalar RSUExampleScenario.node[81].veinsmobility 	totalTime 	226.9
scalar RSUExampleScenario.node[81].veinsmobility 	stopTime 	713.1
scalar RSUExampleScenario.node[81].veinsmobility 	minSpeed 	0.24983745645685
scalar RSUExampleScenario.node[81].veinsmobility 	maxSpeed 	18.999981312093
scalar RSUExampleScenario.node[81].veinsmobility 	totalDistance 	3409.825828017
scalar RSUExampleScenario.node[81].veinsmobility 	totalCO2Emission 	707.20479742124
scalar RSUExampleScenario.node[82].veinsmobility 	startTime 	492.1
scalar RSUExampleScenario.node[82].veinsmobility 	totalTime 	227
scalar RSUExampleScenario.node[82].veinsmobility 	stopTime 	719.2
scalar RSUExampleScenario.node[82].veinsmobility 	minSpeed 	0.25780450890446
scalar RSUExampleScenario.node[82].veinsmobility 	maxSpeed 	18.999691113592
scalar RSUExampleScenario.node[82].veinsmobility 	totalDistance 	3409.8877134658
scalar RSUExampleScenario.node[82].veinsmobility 	totalCO2Emission 	708.2187710347
scalar RSUExampleScenario.node[83].veinsmobility 	startTime 	498.1
scalar RSUExampleScenario.node[83].veinsmobility 	totalTime 	227
scalar RSUExampleScenario.node[83].veinsmobility 	stopTime 	725.2
scalar RSUExampleScenario.node[83].veinsmobility 	minSpeed 	0.24966913657798
scalar RSUExampleScenario.node[83].veinsmobility 	maxSpeed 	18.999262380316
scalar RSUExampleScenario.node[83].veinsmobility 	totalDistance 	3409.3116900161
scalar RSUExampleScenario.node[83].veinsmobility 	totalCO2Emission 	705.99412827242
scalar RSUExampleScenario.node[84].veinsmobility 	startTime 	504.1
scalar RSUExampleScenario.node[84].veinsmobility 	totalTime 	226.8
scalar RSUExampleScenario.node[84].veinsmobility 	stopTime 	731
scalar RSUExampleScenario.node[84].veinsmobility 	minSpeed 	0.25784852477279
scalar RSUExampleScenario.node[84].veinsmobility 	maxSpeed 	18.999969584218
scalar RSUExampleScenario.node[84].veinsmobility 	totalDistance 	3409.3844172116
scalar RSUExampleScenario.node[84].veinsmobility 	totalCO2Emission 	709.4608947358
scalar RSUExampleScenario.node[85].veinsmobility 	startTime 	510.1
scalar RSUExampleScenario.node[85].veinsmobility 	totalTime 	226.9
scalar RSUExampleScenario.node[85].veinsmobility 	stopTime 	737.1
scalar RSUExampleScenario.node[85].veinsmobility 	minSpeed 	0.24832857429143
scalar RSUExampleScenario.node[85].veinsmobility 	maxSpeed 	18.999931760014
scalar RSUExampleScenario.node[85].veinsmobility 	totalDistance 	3409.6711622696
scalar RSUExampleScenario.node[85].veinsmobility 	totalCO2Emission 	710.8868461787
scalar RSUExampleScenario.node[86].veinsmobility 	startTime 	516.1
scalar RSUExampleScenario.node[86].veinsmobility 	totalTime 	227.1
scalar RSUExampleScenario.node[86].veinsmobility 	stopTime 	743.3
scalar RSUExampleScenario.node[86].veinsmobility 	minSpeed 	0.25086950840917
scalar RSUExampleScenario.node[86].veinsmobility 	maxSpeed 	18.999410068765
scalar RSUExampleScenario.node[86].veinsmobility 	totalDistance 	3409.146322373
scalar RSUExampleScenario.node[86].veinsmobility 	totalCO2Emission 	705.46909089898
scalar RSUExampleScenario.node[87].veinsmobility 	startTime 	522.1
scalar RSUExampleScenario.node[87].veinsmobility 	totalTime 	226.9
scalar RSUExampleScenario.node[87].veinsmobility 	stopTime 	749.1
scalar RSUExampleScenario.node[87].veinsmobility 	minSpeed 	0.24746639518347
scalar RSUExampleScenario.node[87].veinsmobility 	maxSpeed 	18.999900390184
scalar RSUExampleScenario.node[87].veinsmobility 	totalDistance 	3409.196906125
scalar RSUExampleScenario.node[87].veinsmobility 	totalCO2Emission 	708.24504916357
scalar RSUExampleScenario.node[88].veinsmobility 	startTime 	528.1
scalar RSUExampleScenario.node[88].veinsmobility 	totalTime 	227.1
scalar RSUExampleScenario.node[88].veinsmobility 	stopTime 	755.3
scalar RSUExampleScenario.node[88].veinsmobility 	minSpeed 	0.25045762855513
scalar RSUExampleScenario.node[88].veinsmobility 	maxSpeed 	18.999880070076
scalar RSUExampleScenario.node[88].veinsmobility 	totalDistance 	3409.6786659347
scalar RSUExampleScenario.node[88].veinsmobility 	totalCO2Emission 	709.24052585902
scalar RSUExampleScenario.node[89].veinsmobility 	startTime 	534.1
scalar RSUExampleScenario.node[89].veinsmobility 	totalTime 	226.9
scalar RSUExampleScenario.node[89].veinsmobility 	stopTime 	761.1
scalar RSUExampleScenario.node[89].veinsmobility 	minSpeed 	0.25264367880323
scalar RSUExampleScenario.node[89].veinsmobility 	maxSpeed 	18.999890909586
scalar RSUExampleScenario.node[89].veinsmobility 	totalDistance 	3409.5995204826
scalar RSUExampleScenario.node[89].veinsmobility 	totalCO2Emission 	706.38696503438
scalar RSUExampleScenario.node[90].veinsmobility 	startTime 	540.1
scalar RSUExampleScenario.node[90].veinsmobility 	totalTime 	226.9
scalar RSUExampleScenario.node[90].veinsmobility 	stopTime 	767.1
scalar RSUExampleScenario.node[90].veinsmobility 	minSpeed 	0.25790697701345
scalar RSUExampleScenario.node[90].veinsmobility 	maxSpeed 	18.99991420307
scalar RSUExampleScenario.node[90].veinsmobility 	totalDistance 	3409.8246696468
scalar RSUExampleScenario.node[90].veinsmobility 	totalCO2Emission 	706.04413328825
scalar RSUExampleScenario.node[91].veinsmobility 	startTime 	546.1
scalar RSUExampleScenario.node[91].veinsmobility 	totalTime 	226.9
scalar RSUExampleScenario.node[91].veinsmobility 	stopTime 	773.1
scalar RSUExampleScenario.node[91].veinsmobility 	minSpeed 	0.25326405631821
scalar RSUExampleScenario.node[91].veinsmobility 	maxSpeed 	18.999900849774
scalar RSUExampleScenario.node[91].veinsmobility 	totalDistance 	3409.3605223335
scalar RSUExampleScenario.node[91].veinsmobility 	totalCO2Emission 	711.32060864668
scalar RSUExampleScenario.node[92].veinsmobility 	startTime 	552.1
scalar RSUExampleScenario.node[92].veinsmobility 	totalTime 	227
scalar RSUExampleScenario.node[92].veinsmobility 	stopTime 	779.2
scalar RSUExampleScenario.node[92].veinsmobility 	minSpeed 	0.25282174402848
scalar RSUExampleScenario.node[92].veinsmobility 	maxSpeed 	18.999960310562
scalar RSUExampleScenario.node[92].veinsmobility 	totalDistance 	3409.2873855324
scalar RSUExampleScenario.node[92].veinsmobility 	totalCO2Emission 	704.33272751812
scalar RSUExampleScenario.node[93].veinsmobility 	startTime 	558.1
scalar RSUExampleScenario.node[93].veinsmobility 	totalTime 	226.7
scalar RSUExampleScenario.node[93].veinsmobility 	stopTime 	784.9
scalar RSUExampleScenario.node[93].veinsmobility 	minSpeed 	0.25730062143551
scalar RSUExampleScenario.node[93].veinsmobility 	maxSpeed 	18.999893308415
scalar RSUExampleScenario.node[93].veinsmobility 	totalDistance 	3409.6646105213
scalar RSUExampleScenario.node[93].veinsmobility 	totalCO2Emission 	707.42052817109
scalar RSUExampleScenario.node[94].veinsmobility 	startTime 	564.1
scalar RSUExampleScenario.node[94].veinsmobility 	totalTime 	226.8
scalar RSUExampleScenario.node[94].veinsmobility 	stopTime 	791
scalar RSUExampleScenario.node[94].veinsmobility 	minSpeed 	0.25327750906884
scalar RSUExampleScenario.node[94].veinsmobility 	maxSpeed 	18.999594285253
scalar RSUExampleScenario.node[94].veinsmobility 	totalDistance 	3409.5849739723
scalar RSUExampleScenario.node[94].veinsmobility 	totalCO2Emission 	704.71345360236
scalar RSUExampleScenario.node[95].veinsmobility 	startTime 	570.1
scalar RSUExampleScenario.node[95].veinsmobility 	totalTime 	226.8
scalar RSUExampleScenario.node[95].veinsmobility 	stopTime 	797
scalar RSUExampleScenario.node[95].veinsmobility 	minSpeed 	0.25206032498903
scalar RSUExampleScenario.node[95].veinsmobility 	maxSpeed 	18.99955640693
scalar RSUExampleScenario.node[95].veinsmobility 	totalDistance 	3409.6623579608
scalar RSUExampleScenario.node[95].veinsmobility 	totalCO2Emission 	708.49577530344
scalar RSUExampleScenario.node[96].veinsmobility 	startTime 	576.1
scalar RSUExampleScenario.node[96].veinsmobility 	totalTime 	226.8
scalar RSUExampleScenario.node[96].veinsmobility 	stopTime 	803
scalar RSUExampleScenario.node[96].veinsmobility 	minSpeed 	0.25905228655459
scalar RSUExampleScenario.node[96].veinsmobility 	maxSpeed 	18.999956207313
scalar RSUExampleScenario.node[96].veinsmobility 	totalDistance 	3409.2893728526
scalar RSUExampleScenario.node[96].veinsmobility 	totalCO2Emission 	710.17439829609
scalar RSUExampleScenario.node[97].veinsmobility 	startTime 	582.1
scalar RSUExampleScenario.node[97].veinsmobility 	totalTime 	226.9
scalar RSUExampleScenario.node[97].veinsmobility 	stopTime 	809.1
scalar RSUExampleScenario.node[97].veinsmobility 	minSpeed 	0.25737908910378
scalar RSUExampleScenario.node[97].veinsmobility 	maxSpeed 	18.999640637431
scalar RSUExampleScenario.node[97].veinsmobility 	totalDistance 	3409.7827631416
scalar RSUExampleScenario.node[97].veinsmobility 	totalCO2Emission 	705.55405601405
scalar RSUExampleScenario.node[98].veinsmobility 	startTime 	588.1
scalar RSUExampleScenario.node[98].veinsmobility 	totalTime 	227.1
scalar RSUExampleScenario.node[98].veinsmobility 	stopTime 	815.3
scalar RSUExampleScenario.node[98].veinsmobility 	minSpeed 	0.25164770426857
scalar RSUExampleScenario.node[98].veinsmobility 	maxSpeed 	18.999749472081
scalar RSUExampleScenario.node[98].veinsmobility 	totalDistance 	3409.8078013986
scalar RSUExampleScenario.node[98].veinsmobility 	totalCO2Emission 	704.49376543216
scalar RSUExampleScenario.node[99].veinsmobility 	startTime 	594.1
scalar RSUExampleScenario.node[99].veinsmobility 	totalTime 	227
scalar RSUExampleScenario.node[99].veinsmobility 	stopTime 	821.2
scalar RSUExampleScenario.node[99].veinsmobility 	minSpeed 	0.25395925394609
scalar RSUExampleScenario.node[99].veinsmobility 	maxSpeed 	18.999910656782
scalar RSUExampleScenario.node[99].veinsmobility 	totalDistance 	3409.2028886523
scalar RSUExampleScenario.node[99].veinsmobility 	totalCO2Emission 	704.51748829358
scalar RSUExampleScenario.node[100].veinsmobility 	startTime 	600.1
scalar RSUExampleScenario.node[100].veinsmobility 	totalTime 	226.9
scalar RSUExampleScenario.node[100].veinsmobility 	stopTime 	827.1
scalar RSUExampleScenario.node[100].veinsmobility 	minSpeed 	0.25427342027985
scalar RSUExampleScenario.node[100].veinsmobility 	maxSpeed 	18.99994216772
scalar RSUExampleScenario.node[100].veinsmobility 	totalDistance 	3409.3099981706
scalar RSUExampleScenario.node[100].veinsmobility 	totalCO2Emission 	707.97568414024
scalar RSUExampleScenario.node[101].veinsmobility 	startTime 	606.1
scalar RSUExampleScenario.node[101].veinsmobility 	totalTime 	227.1
scalar RSUExampleScenario.node[101].veinsmobility 	stopTime 	833.3
scalar RSUExampleScenario.node[101].veinsmobility 	minSpeed 	0.25324524876173
scalar RSUExampleScenario.node[101].veinsmobility 	maxSpeed 	18.99987729308
scalar RSUExampleScenario.node[101].veinsmobility 	totalDistance 	3409.2030358842
scalar RSUExampleScenario.node[101].veinsmobility 	totalCO2Emission 	711.34701273902
scalar RSUExampleScenario.node[102].veinsmobility 	startTime 	612.1
scalar RSUExampleScenario.node[102].veinsmobility 	totalTime 	227
scalar RSUExampleScenario.node[102].veinsmobility 	stopTime 	839.2
scalar RSUExampleScenario.node[102].veinsmobility 	minSpeed 	0.25730677335779
scalar RSUExampleScenario.node[102].veinsmobility 	maxSpeed 	18.999649008345
scalar RSUExampleScenario.node[102].veinsmobility 	totalDistance 	3409.638392427
scalar RSUExampleScenario.node[102].veinsmobility 	totalCO2Emission 	703.84460222601
scalar RSUExampleScenario.node[103].veinsmobility 	startTime 	618.1
scalar RSUExampleScenario.node[103].veinsmobility 	totalTime 	227
scalar RSUExampleScenario.node[103].veinsmobility 	stopTime 	845.2
scalar RSUExampleScenario.node[103].veinsmobility 	minSpeed 	0.24982043454493
scalar RSUExampleScenario.node[103].veinsmobility 	maxSpeed 	18.999949426739
scalar RSUExampleScenario.node[103].veinsmobility 	totalDistance 	3409.306327672
scalar RSUExampleScenario.node[103].veinsmobility 	totalCO2Emission 	706.28911927673
scalar RSUExampleScenario.node[104].veinsmobility 	startTime 	624.1
scalar RSUExampleScenario.node[104].veinsmobility 	totalTime 	226.9
scalar RSUExampleScenario.node[104].veinsmobility 	stopTime 	851.1
scalar RSUExampleScenario.node[104].veinsmobility 	minSpeed 	0.25884071273729
scalar RSUExampleScenario.node[104].veinsmobility 	maxSpeed 	18.999986038257
scalar RSUExampleScenario.node[104].veinsmobility 	totalDistance 	3409.472285212
scalar RSUExampleScenario.node[104].veinsmobility 	totalCO2Emission 	708.55242103651
scalar RSUExampleScenario.node[105].veinsmobility 	startTime 	630.1
scalar RSUExampleScenario.node[105].veinsmobility 	totalTime 	226.8
scalar RSUExampleScenario.node[105].veinsmobility 	stopTime 	857
scalar RSUExampleScenario.node[105].veinsmobility 	minSpeed 	0.24877787460806
scalar RSUExampleScenario.node[105].veinsmobility 	maxSpeed 	18.999545904545
scalar RSUExampleScenario.node[105].veinsmobility 	totalDistance 	3409.138675579
scalar RSUExampleScenario.node[105].veinsmobility 	totalCO2Emission 	708.45653357529
scalar RSUExampleScenario.node[106].veinsmobility 	startTime 	636.1
scalar RSUExampleScenario.node[106].veinsmobility 	totalTime 	227
scalar RSUExampleScenario.node[106].veinsmobility 	stopTime 	863.2
scalar RSUExampleScenario.node[106].veinsmobility 	minSpeed 	0.2493548127145
scalar RSUExampleScenario.node[106].veinsmobility 	maxSpeed 	18.999656206192
scalar RSUExampleScenario.node[106].veinsmobility 	totalDistance 	3409.4951723385
scalar RSUExampleScenario.node[106].veinsmobility 	totalCO2Emission 	707.55261067732
scalar RSUExampleScenario.node[107].veinsmobility 	startTime 	642.1
scalar RSUExampleScenario.node[107].veinsmobility 	totalTime 	226.9
scalar RSUExampleScenario.node[107].veinsmobility 	stopTime 	869.1
scalar RSUExampleScenario.node[107].veinsmobility 	minSpeed 	0.25409507060517
scalar RSUExampleScenario.node[107].veinsmobility 	maxSpeed 	18.999777181058
scalar RSUExampleScenario.node[107].veinsmobility 	totalDistance 	3409.4045332431
scalar RSUExampleScenario.node[107].veinsmobility 	totalCO2Emission 	710.24446332619
scalar RSUExampleScenario.node[108].veinsmobility 	startTime 	648.1
scalar RSUExampleScenario.node[108].veinsmobility 	totalTime 	227
scalar RSUExampleScenario.node[108].veinsmobility 	stopTime 	875.2
scalar RSUExampleScenario.node[108].veinsmobility 	minSpeed 	0.2470375828594
scalar RSUExampleScenario.node[108].veinsmobility 	maxSpeed 	18.99979019965
scalar RSUExampleScenario.node[108].veinsmobility 	totalDistance 	3409.4240970655
scalar RSUExampleScenario.node[108].veinsmobility 	totalCO2Emission 	709.03318771113
scalar RSUExampleScenario.node[109].veinsmobility 	startTime 	654.1
scalar RSUExampleScenario.node[109].veinsmobility 	totalTime 	226.8
scalar RSUExampleScenario.node[109].veinsmobility 	stopTime 	881
scalar RSUExampleScenario.node[109].veinsmobility 	minSpeed 	0.257171834443
scalar RSUExampleScenario.node[109].veinsmobility 	maxSpeed 	18.999952347993
scalar RSUExampleScenario.node[109].veinsmobility 	totalDistance 	3409.2737139055
scalar RSUExampleScenario.node[109].veinsmobility 	totalCO2Emission 	707.57976339071
scalar RSUExampleScenario.node[110].veinsmobility 	startTime 	660.1
scalar RSUExampleScenario.node[110].veinsmobility 	totalTime 	226.8
scalar RSUExampleScenario.node[110].veinsmobility 	stopTime 	887
scalar RSUExampleScenario.node[110].veinsmobility 	minSpeed 	0.25035506344028
scalar RSUExampleScenario.node[110].veinsmobility 	maxSpeed 	18.999994750714
scalar RSUExampleScenario.node[110].veinsmobility 	totalDistance 	3409.1834844716
scalar RSUExampleScenario.node[110].veinsmobility 	totalCO2Emission 	705.73296315971
scalar RSUExampleScenario.node[111].veinsmobility 	startTime 	666.1
scalar RSUExampleScenario.node[111].veinsmobility 	totalTime 	227
scalar RSUExampleScenario.node[111].veinsmobility 	stopTime 	893.2
scalar RSUExampleScenario.node[111].veinsmobility 	minSpeed 	0.25548271272145
scalar RSUExampleScenario.node[111].veinsmobility 	maxSpeed 	18.999994817122
scalar RSUExampleScenario.node[111].veinsmobility 	totalDistance 	3409.8551280442
scalar RSUExampleScenario.node[111].veinsmobility 	totalCO2Emission 	706.19836821246
scalar RSUExampleScenario.node[112].veinsmobility 	startTime 	672.1
scalar RSUExampleScenario.node[112].veinsmobility 	totalTime 	227
scalar RSUExampleScenario.node[112].veinsmobility 	stopTime 	899.2
scalar RSUExampleScenario.node[112].veinsmobility 	minSpeed 	0.25905124555691
scalar RSUExampleScenario.node[112].veinsmobility 	maxSpeed 	18.999569100202
scalar RSUExampleScenario.node[112].veinsmobility 	totalDistance 	3409.6091447868
scalar RSUExampleScenario.node[112].veinsmobility 	totalCO2Emission 	704.60623796941
scalar RSUExampleScenario.node[113].veinsmobility 	startTime 	678.1
scalar RSUExampleScenario.node[113].veinsmobility 	totalTime 	226.9
scalar RSUExampleScenario.node[113].veinsmobility 	stopTime 	905.1
scalar RSUExampleScenario.node[113].veinsmobility 	minSpeed 	0.25185243809666
scalar RSUExampleScenario.node[113].veinsmobility 	maxSpeed 	18.99997330612
scalar RSUExampleScenario.node[113].veinsmobility 	totalDistance 	3409.8461242363
scalar RSUExampleScenario.node[113].veinsmobility 	totalCO2Emission 	705.79142481813
scalar RSUExampleScenario.node[114].veinsmobility 	startTime 	684.1
scalar RSUExampleScenario.node[114].veinsmobility 	totalTime 	226.9
scalar RSUExampleScenario.node[114].veinsmobility 	stopTime 	911.1
scalar RSUExampleScenario.node[114].veinsmobility 	minSpeed 	0.25811567749409
scalar RSUExampleScenario.node[114].veinsmobility 	maxSpeed 	18.999503307533
scalar RSUExampleScenario.node[114].veinsmobility 	totalDistance 	3409.4417706154
scalar RSUExampleScenario.node[114].veinsmobility 	totalCO2Emission 	705.25260562783
scalar RSUExampleScenario.node[115].veinsmobility 	startTime 	690.1
scalar RSUExampleScenario.node[115].veinsmobility 	totalTime 	226.7
scalar RSUExampleScenario.node[115].veinsmobility 	stopTime 	916.9
scalar RSUExampleScenario.node[115].veinsmobility 	minSpeed 	0.25065769190923
scalar RSUExampleScenario.node[115].veinsmobility 	maxSpeed 	18.999955178897
scalar RSUExampleScenario.node[115].veinsmobility 	totalDistance 	3409.6345436645
scalar RSUExampleScenario.node[115].veinsmobility 	totalCO2Emission 	706.62950961343
scalar RSUExampleScenario.node[116].veinsmobility 	startTime 	696.1
scalar RSUExampleScenario.node[116].veinsmobility 	totalTime 	226.8
scalar RSUExampleScenario.node[116].veinsmobility 	stopTime 	923
scalar RSUExampleScenario.node[116].veinsmobility 	minSpeed 	0.25787321861065
scalar RSUExampleScenario.node[116].veinsmobility 	maxSpeed 	18.999839971384
scalar RSUExampleScenario.node[116].veinsmobility 	totalDistance 	3409.4997218936
scalar RSUExampleScenario.node[116].veinsmobility 	totalCO2Emission 	708.40499375834
scalar RSUExampleScenario.node[117].veinsmobility 	startTime 	702.1
scalar RSUExampleScenario.node[117].veinsmobility 	totalTime 	227
scalar RSUExampleScenario.node[117].veinsmobility 	stopTime 	929.2
scalar RSUExampleScenario.node[117].veinsmobility 	minSpeed 	0.25568411278538
scalar RSUExampleScenario.node[117].veinsmobility 	maxSpeed 	18.999700424478
scalar RSUExampleScenario.node[117].veinsmobility 	totalDistance 	3409.4628906275
scalar RSUExampleScenario.node[117].veinsmobility 	totalCO2Emission 	707.18208178149
scalar RSUExampleScenario.node[118].veinsmobility 	startTime 	708.1
scalar RSUExampleScenario.node[118].veinsmobility 	totalTime 	227.1
scalar RSUExampleScenario.node[118].veinsmobility 	stopTime 	935.3
scalar RSUExampleScenario.node[118].veinsmobility 	minSpeed 	0.25067583143013
scalar RSUExampleScenario.node[118].veinsmobility 	maxSpeed 	18.999884688728
scalar RSUExampleScenario.node[118].veinsmobility 	totalDistance 	3409.9897545759
scalar RSUExampleScenario.node[118].veinsmobility 	totalCO2Emission 	706.46101279287
scalar RSUExampleScenario.node[119].veinsmobility 	startTime 	714.1
scalar RSUExampleScenario.node[119].veinsmobility 	totalTime 	227
scalar RSUExampleScenario.node[119].veinsmobility 	stopTime 	941.2
scalar RSUExampleScenario.node[119].veinsmobility 	minSpeed 	0.25829538776306
scalar RSUExampleScenario.node[119].veinsmobility 	maxSpeed 	18.999713983475
scalar RSUExampleScenario.node[119].veinsmobility 	totalDistance 	3409.3180821868
scalar RSUExampleScenario.node[119].veinsmobility 	totalCO2Emission 	707.45842226781
scalar RSUExampleScenario.node[120].veinsmobility 	startTime 	720.1
scalar RSUExampleScenario.node[120].veinsmobility 	totalTime 	227
scalar RSUExampleScenario.node[120].veinsmobility 	stopTime 	947.2
scalar RSUExampleScenario.node[120].veinsmobility 	minSpeed 	0.25425589267467
scalar RSUExampleScenario.node[120].veinsmobility 	maxSpeed 	18.999508583243
scalar RSUExampleScenario.node[120].veinsmobility 	totalDistance 	3409.618317737
scalar RSUExampleScenario.node[120].veinsmobility 	totalCO2Emission 	707.92290339886
scalar RSUExampleScenario.node[121].veinsmobility 	startTime 	726.1
scalar RSUExampleScenario.node[121].veinsmobility 	totalTime 	227
scalar RSUExampleScenario.node[121].veinsmobility 	stopTime 	953.2
scalar RSUExampleScenario.node[121].veinsmobility 	minSpeed 	0.25289942074893
scalar RSUExampleScenario.node[121].veinsmobility 	maxSpeed 	18.999517884473
scalar RSUExampleScenario.node[121].veinsmobility 	totalDistance 	3409.736259054
scalar RSUExampleScenario.node[121].veinsmobility 	totalCO2Emission 	712.94369681696
scalar RSUExampleScenario.node[122].veinsmobility 	startTime 	732.1
scalar RSUExampleScenario.node[122].veinsmobility 	totalTime 	226.8
scalar RSUExampleScenario.node[122].veinsmobility 	stopTime 	959
scalar RSUExampleScenario.node[122].veinsmobility 	minSpeed 	0.24941412096401
scalar RSUExampleScenario.node[122].veinsmobility 	maxSpeed 	18.999780384894
scalar RSUExampleScenario.node[122].veinsmobility 	totalDistance 	3409.7774650405
scalar RSUExampleScenario.node[122].veinsmobility 	totalCO2Emission 	707.81061999179
scalar RSUExampleScenario.node[123].veinsmobility 	startTime 	738.1
scalar RSUExampleScenario.node[123].veinsmobility 	totalTime 	226.9
scalar RSUExampleScenario.node[123].veinsmobility 	stopTime 	965.1
scalar RSUExampleScenario.node[123].veinsmobility 	minSpeed 	0.25084274860588
scalar RSUExampleScenario.node[123].veinsmobility 	maxSpeed 	18.999405516824
scalar RSUExampleScenario.node[123].veinsmobility 	totalDistance 	3409.7121349116
scalar RSUExampleScenario.node[123].veinsmobility 	totalCO2Emission 	709.43353750212
scalar RSUExampleScenario.node[124].veinsmobility 	startTime 	744.1
scalar RSUExampleScenario.node[124].veinsmobility 	totalTime 	226.9
scalar RSUExampleScenario.node[124].veinsmobility 	stopTime 	971.1
scalar RSUExampleScenario.node[124].veinsmobility 	minSpeed 	0.25139075357397
scalar RSUExampleScenario.node[124].veinsmobility 	maxSpeed 	18.999159027319
scalar RSUExampleScenario.node[124].veinsmobility 	totalDistance 	3409.8082865
scalar RSUExampleScenario.node[124].veinsmobility 	totalCO2Emission 	705.54869593532
scalar RSUExampleScenario.node[125].veinsmobility 	startTime 	750.1
scalar RSUExampleScenario.node[125].veinsmobility 	totalTime 	227.1
scalar RSUExampleScenario.node[125].veinsmobility 	stopTime 	977.3
scalar RSUExampleScenario.node[125].veinsmobility 	minSpeed 	0.25159894952364
scalar RSUExampleScenario.node[125].veinsmobility 	maxSpeed 	18.99954317749
scalar RSUExampleScenario.node[125].veinsmobility 	totalDistance 	3409.67243936
scalar RSUExampleScenario.node[125].veinsmobility 	totalCO2Emission 	709.39109323551
scalar RSUExampleScenario.node[126].veinsmobility 	startTime 	756.1
scalar RSUExampleScenario.node[126].veinsmobility 	totalTime 	227.2
scalar RSUExampleScenario.node[126].veinsmobility 	stopTime 	983.4
scalar RSUExampleScenario.node[126].veinsmobility 	minSpeed 	0.24834270341648
scalar RSUExampleScenario.node[126].veinsmobility 	maxSpeed 	18.999834024997
scalar RSUExampleScenario.node[126].veinsmobility 	totalDistance 	3409.7960918483
scalar RSUExampleScenario.node[126].veinsmobility 	totalCO2Emission 	702.11608333005
scalar RSUExampleScenario.node[127].veinsmobility 	startTime 	762.1
scalar RSUExampleScenario.node[127].veinsmobility 	totalTime 	226.7
scalar RSUExampleScenario.node[127].veinsmobility 	stopTime 	988.9
scalar RSUExampleScenario.node[127].veinsmobility 	minSpeed 	0.24962479381543
scalar RSUExampleScenario.node[127].veinsmobility 	maxSpeed 	18.999841167817
scalar RSUExampleScenario.node[127].veinsmobility 	totalDistance 	3409.5646438423
scalar RSUExampleScenario.node[127].veinsmobility 	totalCO2Emission 	704.13620780076
scalar RSUExampleScenario.node[128].veinsmobility 	startTime 	768.1
scalar RSUExampleScenario.node[128].veinsmobility 	totalTime 	226.8
scalar RSUExampleScenario.node[128].veinsmobility 	stopTime 	995
scalar RSUExampleScenario.node[128].veinsmobility 	minSpeed 	0.25241630540718
scalar RSUExampleScenario.node[128].veinsmobility 	maxSpeed 	18.999933912642
scalar RSUExampleScenario.node[128].veinsmobility 	totalDistance 	3409.3662289876
scalar RSUExampleScenario.node[128].veinsmobility 	totalCO2Emission 	706.94046968847
scalar RSUExampleScenario.node[129].veinsmobility 	startTime 	774.1
scalar RSUExampleScenario.node[129].veinsmobility 	totalTime 	227
scalar RSUExampleScenario.node[129].veinsmobility 	stopTime 	1001.2
scalar RSUExampleScenario.node[129].veinsmobility 	minSpeed 	0.25626950868964
scalar RSUExampleScenario.node[129].veinsmobility 	maxSpeed 	18.999950728808
scalar RSUExampleScenario.node[129].veinsmobility 	totalDistance 	3409.7955362342
scalar RSUExampleScenario.node[129].veinsmobility 	totalCO2Emission 	705.81766585939
scalar RSUExampleScenario.node[130].veinsmobility 	startTime 	780.1
scalar RSUExampleScenario.node[130].veinsmobility 	totalTime 	227
scalar RSUExampleScenario.node[130].veinsmobility 	stopTime 	1007.2
scalar RSUExampleScenario.node[130].veinsmobility 	minSpeed 	0.25989457047149
scalar RSUExampleScenario.node[130].veinsmobility 	maxSpeed 	18.999474494108
scalar RSUExampleScenario.node[130].veinsmobility 	totalDistance 	3409.6478460336
scalar RSUExampleScenario.node[130].veinsmobility 	totalCO2Emission 	709.11573443018
scalar RSUExampleScenario.node[131].veinsmobility 	startTime 	786.1
scalar RSUExampleScenario.node[131].veinsmobility 	totalTime 	227.1
scalar RSUExampleScenario.node[131].veinsmobility 	stopTime 	1013.3
scalar RSUExampleScenario.node[131].veinsmobility 	minSpeed 	0.24890802300302
scalar RSUExampleScenario.node[131].veinsmobility 	maxSpeed 	18.999495641622
scalar RSUExampleScenario.node[131].veinsmobility 	totalDistance 	3409.3621785019
scalar RSUExampleScenario.node[131].veinsmobility 	totalCO2Emission 	709.12236433863
scalar RSUExampleScenario.node[132].veinsmobility 	startTime 	792.1
scalar RSUExampleScenario.node[132].veinsmobility 	totalTime 	227.1
scalar RSUExampleScenario.node[132].veinsmobility 	stopTime 	1019.3
scalar RSUExampleScenario.node[132].veinsmobility 	minSpeed 	0.25028741118242
scalar RSUExampleScenario.node[132].veinsmobility 	maxSpeed 	18.999848409069
scalar RSUExampleScenario.node[132].veinsmobility 	totalDistance 	3409.3547709408
scalar RSUExampleScenario.node[132].veinsmobility 	totalCO2Emission 	703.22692422699
scalar RSUExampleScenario.node[133].veinsmobility 	startTime 	798.1
scalar RSUExampleScenario.node[133].veinsmobility 	totalTime 	226.8
scalar RSUExampleScenario.node[133].veinsmobility 	stopTime 	1025
scalar RSUExampleScenario.node[133].veinsmobility 	minSpeed 	0.24939151215437
scalar RSUExampleScenario.node[133].veinsmobility 	maxSpeed 	18.999753824193
scalar RSUExampleScenario.node[133].veinsmobility 	totalDistance 	3409.232059746
scalar RSUExampleScenario.node[133].veinsmobility 	totalCO2Emission 	706.54300759265
scalar RSUExampleScenario.node[134].veinsmobility 	startTime 	804.1
scalar RSUExampleScenario.node[134].veinsmobility 	totalTime 	226.7
scalar RSUExampleScenario.node[134].veinsmobility 	stopTime 	1030.9
scalar RSUExampleScenario.node[134].veinsmobility 	minSpeed 	0.25288340088283
scalar RSUExampleScenario.node[134].veinsmobility 	maxSpeed 	18.999756024161
scalar RSUExampleScenario.node[134].veinsmobility 	totalDistance 	3409.4050586674
scalar RSUExampleScenario.node[134].veinsmobility 	totalCO2Emission 	707.10858279866
scalar RSUExampleScenario.node[135].veinsmobility 	startTime 	810.1
scalar RSUExampleScenario.node[135].veinsmobility 	totalTime 	226.8
scalar RSUExampleScenario.node[135].veinsmobility 	stopTime 	1037
scalar RSUExampleScenario.node[135].veinsmobility 	minSpeed 	0.25107855479233
scalar RSUExampleScenario.node[135].veinsmobility 	maxSpeed 	18.999927842882
scalar RSUExampleScenario.node[135].veinsmobility 	totalDistance 	3409.2716717871
scalar RSUExampleScenario.node[135].veinsmobility 	totalCO2Emission 	705.4122859253
scalar RSUExampleScenario.node[136].veinsmobility 	startTime 	816.1
scalar RSUExampleScenario.node[136].veinsmobility 	totalTime 	226.9
scalar RSUExampleScenario.node[136].veinsmobility 	stopTime 	1043.1
scalar RSUExampleScenario.node[136].veinsmobility 	minSpeed 	0.25410190599971
scalar RSUExampleScenario.node[136].veinsmobility 	maxSpeed 	18.999970854989
scalar RSUExampleScenario.node[136].veinsmobility 	totalDistance 	3409.7054430059
scalar RSUExampleScenario.node[136].veinsmobility 	totalCO2Emission 	706.78732261277
scalar RSUExampleScenario.node[137].veinsmobility 	startTime 	822.1
scalar RSUExampleScenario.node[137].veinsmobility 	totalTime 	226.9
scalar RSUExampleScenario.node[137].veinsmobility 	stopTime 	1049.1
scalar RSUExampleScenario.node[137].veinsmobility 	minSpeed 	0.25706865061121
scalar RSUExampleScenario.node[137].veinsmobility 	maxSpeed 	18.999773182385
scalar RSUExampleScenario.node[137].veinsmobility 	totalDistance 	3409.6749993781
scalar RSUExampleScenario.node[137].veinsmobility 	totalCO2Emission 	705.27403093373
scalar RSUExampleScenario.node[138].veinsmobility 	startTime 	828.1
scalar RSUExampleScenario.node[138].veinsmobility 	totalTime 	227.1
scalar RSUExampleScenario.node[138].veinsmobility 	stopTime 	1055.3
scalar RSUExampleScenario.node[138].veinsmobility 	minSpeed 	0.25707526761619
scalar RSUExampleScenario.node[138].veinsmobility 	maxSpeed 	18.999861789909
scalar RSUExampleScenario.node[138].veinsmobility 	totalDistance 	3409.085824724
scalar RSUExampleScenario.node[138].veinsmobility 	totalCO2Emission 	706.9764614253
scalar RSUExampleScenario.node[139].veinsmobility 	startTime 	834.1
scalar RSUExampleScenario.node[139].veinsmobility 	totalTime 	227
scalar RSUExampleScenario.node[139].veinsmobility 	stopTime 	1061.2
scalar RSUExampleScenario.node[139].veinsmobility 	minSpeed 	0.25374638088164
scalar RSUExampleScenario.node[139].veinsmobility 	maxSpeed 	18.999846822361
scalar RSUExampleScenario.node[139].veinsmobility 	totalDistance 	3409.417856016
scalar RSUExampleScenario.node[139].veinsmobility 	totalCO2Emission 	702.5478906724
scalar RSUExampleScenario.node[140].veinsmobility 	startTime 	840.1
scalar RSUExampleScenario.node[140].veinsmobility 	totalTime 	226.8
scalar RSUExampleScenario.node[140].veinsmobility 	stopTime 	1067
scalar RSUExampleScenario.node[140].veinsmobility 	minSpeed 	0.25899465273903
scalar RSUExampleScenario.node[140].veinsmobility 	maxSpeed 	18.999940122331
scalar RSUExampleScenario.node[140].veinsmobility 	totalDistance 	3409.7000706802
scalar RSUExampleScenario.node[140].veinsmobility 	totalCO2Emission 	708.44463206877
scalar RSUExampleScenario.node[141].veinsmobility 	startTime 	846.1
scalar RSUExampleScenario.node[141].veinsmobility 	totalTime 	227.2
scalar RSUExampleScenario.node[141].veinsmobility 	stopTime 	1073.4
scalar RSUExampleScenario.node[141].veinsmobility 	minSpeed 	0.25013356415182
scalar RSUExampleScenario.node[141].veinsmobility 	maxSpeed 	18.999877409067
scalar RSUExampleScenario.node[141].veinsmobility 	totalDistance 	3409.2811398718
scalar RSUExampleScenario.node[141].veinsmobility 	totalCO2Emission 	704.10976976011
scalar RSUExampleScenario.node[142].veinsmobility 	startTime 	852.1
scalar RSUExampleScenario.node[142].veinsmobility 	totalTime 	227
scalar RSUExampleScenario.node[142].veinsmobility 	stopTime 	1079.2
scalar RSUExampleScenario.node[142].veinsmobility 	minSpeed 	0.24876681588544
scalar RSUExampleScenario.node[142].veinsmobility 	maxSpeed 	18.999923045014
scalar RSUExampleScenario.node[142].veinsmobility 	totalDistance 	3409.3554605452
scalar RSUExampleScenario.node[142].veinsmobility 	totalCO2Emission 	708.11515383595
scalar RSUExampleScenario.node[143].veinsmobility 	startTime 	858.1
scalar RSUExampleScenario.node[143].veinsmobility 	totalTime 	227.2
scalar RSUExampleScenario.node[143].veinsmobility 	stopTime 	1085.4
scalar RSUExampleScenario.node[143].veinsmobility 	minSpeed 	0.25521009544563
scalar RSUExampleScenario.node[143].veinsmobility 	maxSpeed 	18.999938895267
scalar RSUExampleScenario.node[143].veinsmobility 	totalDistance 	3409.4849652877
scalar RSUExampleScenario.node[143].veinsmobility 	totalCO2Emission 	710.30057571561
scalar RSUExampleScenario.node[144].veinsmobility 	startTime 	864.1
scalar RSUExampleScenario.node[144].veinsmobility 	totalTime 	226.9
scalar RSUExampleScenario.node[144].veinsmobility 	stopTime 	1091.1
scalar RSUExampleScenario.node[144].veinsmobility 	minSpeed 	0.24850617284188
scalar RSUExampleScenario.node[144].veinsmobility 	maxSpeed 	18.999970294456
scalar RSUExampleScenario.node[144].veinsmobility 	totalDistance 	3409.1335376292
scalar RSUExampleScenario.node[144].veinsmobility 	totalCO2Emission 	709.79357106771
scalar RSUExampleScenario.node[145].veinsmobility 	startTime 	870.1
scalar RSUExampleScenario.node[145].veinsmobility 	totalTime 	226.9
scalar RSUExampleScenario.node[145].veinsmobility 	stopTime 	1097.1
scalar RSUExampleScenario.node[145].veinsmobility 	minSpeed 	0.25056852976629
scalar RSUExampleScenario.node[145].veinsmobility 	maxSpeed 	18.9998927319
scalar RSUExampleScenario.node[145].veinsmobility 	totalDistance 	3409.9682050653
scalar RSUExampleScenario.node[145].veinsmobility 	totalCO2Emission 	707.90924425932
scalar RSUExampleScenario.node[146].veinsmobility 	startTime 	876.1
scalar RSUExampleScenario.node[146].veinsmobility 	totalTime 	226.5
scalar RSUExampleScenario.node[146].veinsmobility 	stopTime 	1102.7
scalar RSUExampleScenario.node[146].veinsmobility 	minSpeed 	0.25911787170894
scalar RSUExampleScenario.node[146].veinsmobility 	maxSpeed 	18.999566161968
scalar RSUExampleScenario.node[146].veinsmobility 	totalDistance 	3409.6488246539
scalar RSUExampleScenario.node[146].veinsmobility 	totalCO2Emission 	704.82305650813
scalar RSUExampleScenario.node[147].veinsmobility 	startTime 	882.1
scalar RSUExampleScenario.node[147].veinsmobility 	totalTime 	226.7
scalar RSUExampleScenario.node[147].veinsmobility 	stopTime 	1108.9
scalar RSUExampleScenario.node[147].veinsmobility 	minSpeed 	0.25039135673526
scalar RSUExampleScenario.node[147].veinsmobility 	maxSpeed 	18.99972481569
scalar RSUExampleScenario.node[147].veinsmobility 	totalDistance 	3409.3361428682
scalar RSUExampleScenario.node[147].veinsmobility 	totalCO2Emission 	708.18131500935
scalar RSUExampleScenario.node[148].veinsmobility 	startTime 	888.1
scalar RSUExampleScenario.node[148].veinsmobility 	totalTime 	226.8
scalar RSUExampleScenario.node[148].veinsmobility 	stopTime 	1115
scalar RSUExampleScenario.node[148].veinsmobility 	minSpeed 	0.25986562817404
scalar RSUExampleScenario.node[148].veinsmobility 	maxSpeed 	18.999993181834
scalar RSUExampleScenario.node[148].veinsmobility 	totalDistance 	3409.6698539342
scalar RSUExampleScenario.node[148].veinsmobility 	totalCO2Emission 	708.16909215145
scalar RSUExampleScenario.node[149].veinsmobility 	startTime 	894.1
scalar RSUExampleScenario.node[149].veinsmobility 	totalTime 	226.8
scalar RSUExampleScenario.node[149].veinsmobility 	stopTime 	1121
scalar RSUExampleScenario.node[149].veinsmobility 	minSpeed 	0.25214132926264
scalar RSUExampleScenario.node[149].veinsmobility 	maxSpeed 	18.999797599113
scalar RSUExampleScenario.node[149].veinsmobility 	totalDistance 	3409.3684032023
scalar RSUExampleScenario.node[149].veinsmobility 	totalCO2Emission 	705.73337820955
scalar RSUExampleScenario.node[150].veinsmobility 	startTime 	900.1
scalar RSUExampleScenario.node[150].veinsmobility 	totalTime 	227.1
scalar RSUExampleScenario.node[150].veinsmobility 	stopTime 	1127.3
scalar RSUExampleScenario.node[150].veinsmobility 	minSpeed 	0.25240695425589
scalar RSUExampleScenario.node[150].veinsmobility 	maxSpeed 	18.999941993982
scalar RSUExampleScenario.node[150].veinsmobility 	totalDistance 	3409.795183629
scalar RSUExampleScenario.node[150].veinsmobility 	totalCO2Emission 	705.42718867167
scalar RSUExampleScenario.node[151].veinsmobility 	startTime 	906.1
scalar RSUExampleScenario.node[151].veinsmobility 	totalTime 	226.8
scalar RSUExampleScenario.node[151].veinsmobility 	stopTime 	1133
scalar RSUExampleScenario.node[151].veinsmobility 	minSpeed 	0.25529233506462
scalar RSUExampleScenario.node[151].veinsmobility 	maxSpeed 	18.999852956773
scalar RSUExampleScenario.node[151].veinsmobility 	totalDistance 	3409.1118989206
scalar RSUExampleScenario.node[151].veinsmobility 	totalCO2Emission 	707.16486381307
scalar RSUExampleScenario.node[152].veinsmobility 	startTime 	912.1
scalar RSUExampleScenario.node[152].veinsmobility 	totalTime 	226.7
scalar RSUExampleScenario.node[152].veinsmobility 	stopTime 	1138.9
scalar RSUExampleScenario.node[152].veinsmobility 	minSpeed 	0.25130543261976
scalar RSUExampleScenario.node[152].veinsmobility 	maxSpeed 	18.999800292812
scalar RSUExampleScenario.node[152].veinsmobility 	totalDistance 	3409.6186770554
scalar RSUExampleScenario.node[152].veinsmobility 	totalCO2Emission 	705.25024764806
[...]
scalar RSUExampleScenario.node[262].veinsmobility 	startTime 	1572.1
scalar RSUExampleScenario.node[262].veinsmobility 	totalTime 	226.8
scalar RSUExampleScenario.node[262].veinsmobility 	stopTime 	1799
scalar RSUExampleScenario.node[262].veinsmobility 	minSpeed 	0.24803548554028
scalar RSUExampleScenario.node[262].veinsmobility 	maxSpeed 	18.999749579532
scalar RSUExampleScenario.node[262].veinsmobility 	totalDistance 	3409.4892234452
scalar RSUExampleScenario.node[262].veinsmobility 	totalCO2Emission 	705.50376255787
scalar RSUExampleScenario.node[263].veinsmobility 	startTime 	1578.1
scalar RSUExampleScenario.node[263].veinsmobility 	totalTime 	226.9
scalar RSUExampleScenario.node[263].veinsmobility 	stopTime 	1805.1
scalar RSUExampleScenario.node[263].veinsmobility 	minSpeed 	0.25309044440323
scalar RSUExampleScenario.node[263].veinsmobility 	maxSpeed 	18.999804149498
scalar RSUExampleScenario.node[263].veinsmobility 	totalDistance 	3409.0761737811
scalar RSUExampleScenario.node[263].veinsmobility 	totalCO2Emission 	704.34847067143
scalar RSUExampleScenario.node[264].veinsmobility 	startTime 	1584.1
scalar RSUExampleScenario.node[264].veinsmobility 	totalTime 	227
scalar RSUExampleScenario.node[264].veinsmobility 	stopTime 	1811.2
scalar RSUExampleScenario.node[264].veinsmobility 	minSpeed 	0.24932702537975
scalar RSUExampleScenario.node[264].veinsmobility 	maxSpeed 	18.999954941354
scalar RSUExampleScenario.node[264].veinsmobility 	totalDistance 	3409.3110110369
scalar RSUExampleScenario.node[264].veinsmobility 	totalCO2Emission 	708.39307616761
scalar RSUExampleScenario.node[265].veinsmobility 	startTime 	1590.1
scalar RSUExampleScenario.node[265].veinsmobility 	totalTime 	226.7
scalar RSUExampleScenario.node[265].veinsmobility 	stopTime 	1816.9
scalar RSUExampleScenario.node[265].veinsmobility 	minSpeed 	0.25459810399637
scalar RSUExampleScenario.node[265].veinsmobility 	maxSpeed 	18.999983534943
scalar RSUExampleScenario.node[265].veinsmobility 	totalDistance 	3409.7735276128
scalar RSUExampleScenario.node[265].veinsmobility 	totalCO2Emission 	708.80695660802
scalar RSUExampleScenario.node[266].veinsmobility 	startTime 	1596.1
scalar RSUExampleScenario.node[266].veinsmobility 	totalTime 	226.8
scalar RSUExampleScenario.node[266].veinsmobility 	stopTime 	1823
scalar RSUExampleScenario.node[266].veinsmobility 	minSpeed 	0.251988733456
scalar RSUExampleScenario.node[266].veinsmobility 	maxSpeed 	18.999794451455
scalar RSUExampleScenario.node[266].veinsmobility 	totalDistance 	3409.5470601954
scalar RSUExampleScenario.node[266].veinsmobility 	totalCO2Emission 	705.19854608441
scalar RSUExampleScenario.node[267].veinsmobility 	startTime 	1602.1
scalar RSUExampleScenario.node[267].veinsmobility 	totalTime 	226.9
scalar RSUExampleScenario.node[267].veinsmobility 	stopTime 	1829.1
scalar RSUExampleScenario.node[267].veinsmobility 	minSpeed 	0.25932262045913
scalar RSUExampleScenario.node[267].veinsmobility 	maxSpeed 	18.999902253572
scalar RSUExampleScenario.node[267].veinsmobility 	totalDistance 	3409.3057380802
scalar RSUExampleScenario.node[267].veinsmobility 	totalCO2Emission 	704.69565739821
scalar RSUExampleScenario.node[268].veinsmobility 	startTime 	1608.1
scalar RSUExampleScenario.node[268].veinsmobility 	totalTime 	226.6
scalar RSUExampleScenario.node[268].veinsmobility 	stopTime 	1834.8
scalar RSUExampleScenario.node[268].veinsmobility 	minSpeed 	0.24989559289953
scalar RSUExampleScenario.node[268].veinsmobility 	maxSpeed 	18.999379789431
scalar RSUExampleScenario.node[268].veinsmobility 	totalDistance 	3409.4028400411
scalar RSUExampleScenario.node[268].veinsmobility 	totalCO2Emission 	704.94855023887
scalar RSUExampleScenario.node[269].veinsmobility 	startTime 	1614.1
scalar RSUExampleScenario.node[269].veinsmobility 	totalTime 	227
scalar RSUExampleScenario.node[269].veinsmobility 	stopTime 	1841.2
scalar RSUExampleScenario.node[269].veinsmobility 	minSpeed 	0.25439154804475
scalar RSUExampleScenario.node[269].veinsmobility 	maxSpeed 	18.999562821109
scalar RSUExampleScenario.node[269].veinsmobility 	totalDistance 	3409.1564674873
scalar RSUExampleScenario.node[269].veinsmobility 	totalCO2Emission 	706.34216953905
scalar RSUExampleScenario.node[270].veinsmobility 	startTime 	1620.1
scalar RSUExampleScenario.node[270].veinsmobility 	totalTime 	226.8
scalar RSUExampleScenario.node[270].veinsmobility 	stopTime 	1847
scalar RSUExampleScenario.node[270].veinsmobility 	minSpeed 	0.25447438063775
scalar RSUExampleScenario.node[270].veinsmobility 	maxSpeed 	18.99998235089
scalar RSUExampleScenario.node[270].veinsmobility 	totalDistance 	3409.4028301567
scalar RSUExampleScenario.node[270].veinsmobility 	totalCO2Emission 	706.40547411824
scalar RSUExampleScenario.node[271].veinsmobility 	startTime 	1626.1
scalar RSUExampleScenario.node[271].veinsmobility 	totalTime 	226.6
scalar RSUExampleScenario.node[271].veinsmobility 	stopTime 	1852.8
scalar RSUExampleScenario.node[271].veinsmobility 	minSpeed 	0.2599173527651
scalar RSUExampleScenario.node[271].veinsmobility 	maxSpeed 	18.999525502319
scalar RSUExampleScenario.node[271].veinsmobility 	totalDistance 	3409.6781904156
scalar RSUExampleScenario.node[271].veinsmobility 	totalCO2Emission 	706.39420992675
scalar RSUExampleScenario.node[272].veinsmobility 	startTime 	1632.1
scalar RSUExampleScenario.node[272].veinsmobility 	totalTime 	226.7
scalar RSUExampleScenario.node[272].veinsmobility 	stopTime 	1858.9
scalar RSUExampleScenario.node[272].veinsmobility 	minSpeed 	0.24890593553218
scalar RSUExampleScenario.node[272].veinsmobility 	maxSpeed 	18.999679651924
scalar RSUExampleScenario.node[272].veinsmobility 	totalDistance 	3409.2735720127
scalar RSUExampleScenario.node[272].veinsmobility 	totalCO2Emission 	706.88576399137
scalar RSUExampleScenario.node[273].veinsmobility 	startTime 	1638.1
scalar RSUExampleScenario.node[273].veinsmobility 	totalTime 	227.1
scalar RSUExampleScenario.node[273].veinsmobility 	stopTime 	1865.3
scalar RSUExampleScenario.node[273].veinsmobility 	minSpeed 	0.2525112204859
scalar RSUExampleScenario.node[273].veinsmobility 	maxSpeed 	18.999840740161
scalar RSUExampleScenario.node[273].veinsmobility 	totalDistance 	3409.3676135023
scalar RSUExampleScenario.node[273].veinsmobility 	totalCO2Emission 	712.57735827803
scalar RSUExampleScenario.node[274].veinsmobility 	startTime 	1644.1
scalar RSUExampleScenario.node[274].veinsmobility 	totalTime 	226.6
scalar RSUExampleScenario.node[274].veinsmobility 	stopTime 	1870.8
scalar RSUExampleScenario.node[274].veinsmobility 	minSpeed 	0.25343896058225
scalar RSUExampleScenario.node[274].veinsmobility 	maxSpeed 	18.999280662239
scalar RSUExampleScenario.node[274].veinsmobility 	totalDistance 	3409.5758454383
scalar RSUExampleScenario.node[274].veinsmobility 	totalCO2Emission 	706.24769369781
scalar RSUExampleScenario.node[275].veinsmobility 	startTime 	1650.1
scalar RSUExampleScenario.node[275].veinsmobility 	totalTime 	226.6
scalar RSUExampleScenario.node[275].veinsmobility 	stopTime 	1876.8
scalar RSUExampleScenario.node[275].veinsmobility 	minSpeed 	0.25214942573942
scalar RSUExampleScenario.node[275].veinsmobility 	maxSpeed 	18.999906976831
scalar RSUExampleScenario.node[275].veinsmobility 	totalDistance 	3409.1691127893
scalar RSUExampleScenario.node[275].veinsmobility 	totalCO2Emission 	707.36124832931
scalar RSUExampleScenario.node[276].veinsmobility 	startTime 	1656.1
scalar RSUExampleScenario.node[276].veinsmobility 	totalTime 	226.6
scalar RSUExampleScenario.node[276].veinsmobility 	stopTime 	1882.8
scalar RSUExampleScenario.node[276].veinsmobility 	minSpeed 	0.2574915215238
scalar RSUExampleScenario.node[276].veinsmobility 	maxSpeed 	18.999107024048
scalar RSUExampleScenario.node[276].veinsmobility 	totalDistance 	3409.2946691827
scalar RSUExampleScenario.node[276].veinsmobility 	totalCO2Emission 	706.27591995203
scalar RSUExampleScenario.node[277].veinsmobility 	startTime 	1662.1
scalar RSUExampleScenario.node[277].veinsmobility 	totalTime 	226.6
scalar RSUExampleScenario.node[277].veinsmobility 	stopTime 	1888.8
scalar RSUExampleScenario.node[277].veinsmobility 	minSpeed 	0.25182777938177
scalar RSUExampleScenario.node[277].veinsmobility 	maxSpeed 	18.999468119126
scalar RSUExampleScenario.node[277].veinsmobility 	totalDistance 	3409.3278077094
scalar RSUExampleScenario.node[277].veinsmobility 	totalCO2Emission 	710.91264296205
scalar RSUExampleScenario.node[278].veinsmobility 	startTime 	1668.1
scalar RSUExampleScenario.node[278].veinsmobility 	totalTime 	227
scalar RSUExampleScenario.node[278].veinsmobility 	stopTime 	1895.2
scalar RSUExampleScenario.node[278].veinsmobility 	minSpeed 	0.25399447219796
scalar RSUExampleScenario.node[278].veinsmobility 	maxSpeed 	18.99993277387
scalar RSUExampleScenario.node[278].veinsmobility 	totalDistance 	3409.1898746627
scalar RSUExampleScenario.node[278].veinsmobility 	totalCO2Emission 	707.14208258205
scalar RSUExampleScenario.node[279].veinsmobility 	startTime 	1674.1
scalar RSUExampleScenario.node[279].veinsmobility 	totalTime 	226.8
scalar RSUExampleScenario.node[279].veinsmobility 	stopTime 	1901
scalar RSUExampleScenario.node[279].veinsmobility 	minSpeed 	0.24731372619187
scalar RSUExampleScenario.node[279].veinsmobility 	maxSpeed 	18.999588499861
scalar RSUExampleScenario.node[279].veinsmobility 	totalDistance 	3409.5006379548
scalar RSUExampleScenario.node[279].veinsmobility 	totalCO2Emission 	706.04870141122
scalar RSUExampleScenario.node[280].veinsmobility 	startTime 	1680.1
scalar RSUExampleScenario.node[280].veinsmobility 	totalTime 	226.7
scalar RSUExampleScenario.node[280].veinsmobility 	stopTime 	1906.9
scalar RSUExampleScenario.node[280].veinsmobility 	minSpeed 	0.25085560338828
scalar RSUExampleScenario.node[280].veinsmobility 	maxSpeed 	18.999783866892
scalar RSUExampleScenario.node[280].veinsmobility 	totalDistance 	3409.2619792072
scalar RSUExampleScenario.node[280].veinsmobility 	totalCO2Emission 	707.70817099009
scalar RSUExampleScenario.node[281].veinsmobility 	startTime 	1686.1
scalar RSUExampleScenario.node[281].veinsmobility 	totalTime 	226.8
scalar RSUExampleScenario.node[281].veinsmobility 	stopTime 	1913
scalar RSUExampleScenario.node[281].veinsmobility 	minSpeed 	0.24724428679422
scalar RSUExampleScenario.node[281].veinsmobility 	maxSpeed 	18.999804792996
scalar RSUExampleScenario.node[281].veinsmobility 	totalDistance 	3409.3585175624
scalar RSUExampleScenario.node[281].veinsmobility 	totalCO2Emission 	706.30587279914
scalar RSUExampleScenario.node[282].veinsmobility 	startTime 	1692.1
scalar RSUExampleScenario.node[282].veinsmobility 	totalTime 	227.1
scalar RSUExampleScenario.node[282].veinsmobility 	stopTime 	1919.3
scalar RSUExampleScenario.node[282].veinsmobility 	minSpeed 	0.25166777742933
scalar RSUExampleScenario.node[282].veinsmobility 	maxSpeed 	18.999785138208
scalar RSUExampleScenario.node[282].veinsmobility 	totalDistance 	3409.3243462506
scalar RSUExampleScenario.node[282].veinsmobility 	totalCO2Emission 	706.06369363206
scalar RSUExampleScenario.node[283].veinsmobility 	startTime 	1698.1
scalar RSUExampleScenario.node[283].veinsmobility 	totalTime 	226.9
scalar RSUExampleScenario.node[283].veinsmobility 	stopTime 	1925.1
scalar RSUExampleScenario.node[283].veinsmobility 	minSpeed 	0.25126181062264
scalar RSUExampleScenario.node[283].veinsmobility 	maxSpeed 	18.999916272946
scalar RSUExampleScenario.node[283].veinsmobility 	totalDistance 	3409.2368429465
scalar RSUExampleScenario.node[283].veinsmobility 	totalCO2Emission 	706.74887723266
scalar RSUExampleScenario.node[284].veinsmobility 	startTime 	1704.1
scalar RSUExampleScenario.node[284].veinsmobility 	totalTime 	226.9
scalar RSUExampleScenario.node[284].veinsmobility 	stopTime 	1931.1
scalar RSUExampleScenario.node[284].veinsmobility 	minSpeed 	0.25196127661131
scalar RSUExampleScenario.node[284].veinsmobility 	maxSpeed 	18.999959208292
scalar RSUExampleScenario.node[284].veinsmobility 	totalDistance 	3409.76354863
scalar RSUExampleScenario.node[284].veinsmobility 	totalCO2Emission 	704.90997317096
scalar RSUExampleScenario.node[285].veinsmobility 	startTime 	1710.1
scalar RSUExampleScenario.node[285].veinsmobility 	totalTime 	227.2
scalar RSUExampleScenario.node[285].veinsmobility 	stopTime 	1937.4
scalar RSUExampleScenario.node[285].veinsmobility 	minSpeed 	0.24957204840635
scalar RSUExampleScenario.node[285].veinsmobility 	maxSpeed 	18.99995327716
scalar RSUExampleScenario.node[285].veinsmobility 	totalDistance 	3409.7019300978
scalar RSUExampleScenario.node[285].veinsmobility 	totalCO2Emission 	709.25542322814
scalar RSUExampleScenario.node[286].veinsmobility 	startTime 	1716.1
scalar RSUExampleScenario.node[286].veinsmobility 	totalTime 	227.2
scalar RSUExampleScenario.node[286].veinsmobility 	stopTime 	1943.4
scalar RSUExampleScenario.node[286].veinsmobility 	minSpeed 	0.25190140610072
scalar RSUExampleScenario.node[286].veinsmobility 	maxSpeed 	18.999888785894
scalar RSUExampleScenario.node[286].veinsmobility 	totalDistance 	3409.4170312079
scalar RSUExampleScenario.node[286].veinsmobility 	totalCO2Emission 	705.76085620671
scalar RSUExampleScenario.node[287].veinsmobility 	startTime 	1722.1
scalar RSUExampleScenario.node[287].veinsmobility 	totalTime 	226.7
scalar RSUExampleScenario.node[287].veinsmobility 	stopTime 	1948.9
scalar RSUExampleScenario.node[287].veinsmobility 	minSpeed 	0.24978795088734
scalar RSUExampleScenario.node[287].veinsmobility 	maxSpeed 	18.999693093784
scalar RSUExampleScenario.node[287].veinsmobility 	totalDistance 	3409.1310494329
scalar RSUExampleScenario.node[287].veinsmobility 	totalCO2Emission 	710.44426625773
scalar RSUExampleScenario.node[288].veinsmobility 	startTime 	1728.1
scalar RSUExampleScenario.node[288].veinsmobility 	totalTime 	227.1
scalar RSUExampleScenario.node[288].veinsmobility 	stopTime 	1955.3
scalar RSUExampleScenario.node[288].veinsmobility 	minSpeed 	0.25972898330423
scalar RSUExampleScenario.node[288].veinsmobility 	maxSpeed 	18.999885781342
scalar RSUExampleScenario.node[288].veinsmobility 	totalDistance 	3409.3220281113
scalar RSUExampleScenario.node[288].veinsmobility 	totalCO2Emission 	708.36305802596
scalar RSUExampleScenario.node[289].veinsmobility 	startTime 	1734.1
scalar RSUExampleScenario.node[289].veinsmobility 	totalTime 	226.7
scalar RSUExampleScenario.node[289].veinsmobility 	stopTime 	1960.9
scalar RSUExampleScenario.node[289].veinsmobility 	minSpeed 	0.25471830526344
scalar RSUExampleScenario.node[289].veinsmobility 	maxSpeed 	18.999906617126
scalar RSUExampleScenario.node[289].veinsmobility 	totalDistance 	3409.5262361839
scalar RSUExampleScenario.node[289].veinsmobility 	totalCO2Emission 	711.28361458327
scalar RSUExampleScenario.node[290].veinsmobility 	startTime 	1740.1
scalar RSUExampleScenario.node[290].veinsmobility 	totalTime 	226.9
scalar RSUExampleScenario.node[290].veinsmobility 	stopTime 	1967.1
scalar RSUExampleScenario.node[290].veinsmobility 	minSpeed 	0.2585547110741
scalar RSUExampleScenario.node[290].veinsmobility 	maxSpeed 	18.999914060901
scalar RSUExampleScenario.node[290].veinsmobility 	totalDistance 	3409.3152204395
scalar RSUExampleScenario.node[290].veinsmobility 	totalCO2Emission 	706.52553456571
scalar RSUExampleScenario.node[291].veinsmobility 	startTime 	1746.1
scalar RSUExampleScenario.node[291].veinsmobility 	totalTime 	226.9
scalar RSUExampleScenario.node[291].veinsmobility 	stopTime 	1973.1
scalar RSUExampleScenario.node[291].veinsmobility 	minSpeed 	0.25350043788692
scalar RSUExampleScenario.node[291].veinsmobility 	maxSpeed 	18.999915002568
scalar RSUExampleScenario.node[291].veinsmobility 	totalDistance 	3409.2656267939
scalar RSUExampleScenario.node[291].veinsmobility 	totalCO2Emission 	703.2175307904
scalar RSUExampleScenario.node[292].veinsmobility 	startTime 	1752.1
scalar RSUExampleScenario.node[292].veinsmobility 	totalTime 	226.9
scalar RSUExampleScenario.node[292].veinsmobility 	stopTime 	1979.1
scalar RSUExampleScenario.node[292].veinsmobility 	minSpeed 	0.25937242117175
scalar RSUExampleScenario.node[292].veinsmobility 	maxSpeed 	18.999838362793
scalar RSUExampleScenario.node[292].veinsmobility 	totalDistance 	3409.3237393427
scalar RSUExampleScenario.node[292].veinsmobility 	totalCO2Emission 	706.93650456681
scalar RSUExampleScenario.node[293].veinsmobility 	startTime 	1758.1
scalar RSUExampleScenario.node[293].veinsmobility 	totalTime 	227
scalar RSUExampleScenario.node[293].veinsmobility 	stopTime 	1985.2
scalar RSUExampleScenario.node[293].veinsmobility 	minSpeed 	0.25778411559621
scalar RSUExampleScenario.node[293].veinsmobility 	maxSpeed 	18.999625310572
scalar RSUExampleScenario.node[293].veinsmobility 	totalDistance 	3409.4948948355
scalar RSUExampleScenario.node[293].veinsmobility 	totalCO2Emission 	708.00537229657
scalar RSUExampleScenario.node[294].veinsmobility 	startTime 	1764.1
scalar RSUExampleScenario.node[294].veinsmobility 	totalTime 	227
scalar RSUExampleScenario.node[294].veinsmobility 	stopTime 	1991.2
scalar RSUExampleScenario.node[294].veinsmobility 	minSpeed 	0.25800558422622
scalar RSUExampleScenario.node[294].veinsmobility 	maxSpeed 	18.999974149144
scalar RSUExampleScenario.node[294].veinsmobility 	totalDistance 	3409.2702464424
scalar RSUExampleScenario.node[294].veinsmobility 	totalCO2Emission 	709.14270182308
scalar RSUExampleScenario.node[295].veinsmobility 	startTime 	1770.1
scalar RSUExampleScenario.node[295].veinsmobility 	totalTime 	226.8
scalar RSUExampleScenario.node[295].veinsmobility 	stopTime 	1997
scalar RSUExampleScenario.node[295].veinsmobility 	minSpeed 	0.2517437294377
scalar RSUExampleScenario.node[295].veinsmobility 	maxSpeed 	18.99992632346
scalar RSUExampleScenario.node[295].veinsmobility 	totalDistance 	3409.3741104673
scalar RSUExampleScenario.node[295].veinsmobility 	totalCO2Emission 	705.50279226549
scalar RSUExampleScenario.node[296].veinsmobility 	startTime 	1776.1
scalar RSUExampleScenario.node[296].veinsmobility 	totalTime 	223.8
scalar RSUExampleScenario.node[296].veinsmobility 	stopTime 	2000
scalar RSUExampleScenario.node[296].veinsmobility 	minSpeed 	0.24863065524283
scalar RSUExampleScenario.node[296].veinsmobility 	maxSpeed 	18.999936745211
scalar RSUExampleScenario.node[296].veinsmobility 	totalDistance 	3389.0425270319
scalar RSUExampleScenario.node[296].veinsmobility 	totalCO2Emission 	691.82460309155
scalar RSUExampleScenario.node[297].veinsmobility 	startTime 	1782.1
scalar RSUExampleScenario.node[297].veinsmobility 	totalTime 	217.8
scalar RSUExampleScenario.node[297].veinsmobility 	stopTime 	2000
scalar RSUExampleScenario.node[297].veinsmobility 	minSpeed 	0.25121466313791
scalar RSUExampleScenario.node[297].veinsmobility 	maxSpeed 	18.999976847202
scalar RSUExampleScenario.node[297].veinsmobility 	totalDistance 	3323.0473996011
scalar RSUExampleScenario.node[297].veinsmobility 	totalCO2Emission 	682.60114650473
scalar RSUExampleScenario.node[298].veinsmobility 	startTime 	1788.1
scalar RSUExampleScenario.node[298].veinsmobility 	totalTime 	211.8
scalar RSUExampleScenario.node[298].veinsmobility 	stopTime 	2000
scalar RSUExampleScenario.node[298].veinsmobility 	minSpeed 	0.24915141590196
scalar RSUExampleScenario.node[298].veinsmobility 	maxSpeed 	18.999921644605
scalar RSUExampleScenario.node[298].veinsmobility 	totalDistance 	3239.9405063982
scalar RSUExampleScenario.node[298].veinsmobility 	totalCO2Emission 	669.01396542942
scalar RSUExampleScenario.node[299].veinsmobility 	startTime 	1794.1
scalar RSUExampleScenario.node[299].veinsmobility 	totalTime 	205.8
scalar RSUExampleScenario.node[299].veinsmobility 	stopTime 	2000
scalar RSUExampleScenario.node[299].veinsmobility 	minSpeed 	0.25156450278754
scalar RSUExampleScenario.node[299].veinsmobility 	maxSpeed 	18.999686558805
scalar RSUExampleScenario.node[299].veinsmobility 	totalDistance 	3158.248529488
scalar RSUExampleScenario.node[299].veinsmobility 	totalCO2Emission 	661.13033766916
