version 2
run statistic3-1576-20150325-10:59:29-21892
attr c 24
attr configname statistic3
attr datetime 20150325-10:59:29
attr experiment statistic3
attr inifile omnetpp.ini
attr iterationvars "$p=1/10, $c=24"
attr iterationvars2 "$p=1/10, $c=24, $repetition=76"
attr measurement "$p=1/10, $c=24"
attr network RSUExampleScenario
attr p 1/10
attr processid 21892
attr repetition 76
attr replication #76
attr resultdir results
attr runnumber 1576
attr seedset 1576

scalar . 	c 	24
scalar RSUExampleScenario.rsu[0].appl 	NumberofCH 	12
scalar RSUExampleScenario.rsu[0].appl 	NumberofON 	88
scalar RSUExampleScenario.rsu[0].appl 	NumberofFN 	0
scalar RSUExampleScenario.rsu[0].appl 	meanClusterNodes 	7.3333333333333
scalar RSUExampleScenario.rsu[0].appl 	varClusterNodes 	6.2093120033991
scalar RSUExampleScenario.rsu[0].appl 	sumCHutility 	468.81907646253
scalar RSUExampleScenario.rsu[0].appl 	meanCHutility 	39.068256371877
scalar RSUExampleScenario.rsu[0].appl 	varCHutility 	2.77611681032
scalar RSUExampleScenario.rsu[0].appl 	sumDiffCHutility 	-56.383656632145
scalar RSUExampleScenario.rsu[0].appl 	meanDiffCHutility 	-4.6986380526787
scalar RSUExampleScenario.rsu[0].appl 	varDiffCHutility 	2.7294180083308
scalar RSUExampleScenario.rsu[0].appl 	expectedCHutility 	412.43541983038
scalar RSUExampleScenario.rsu[0].appl 	meanExpectedCHutility 	34.369618319198
scalar RSUExampleScenario.rsu[0].appl 	varExpectedCHutility 	0.68922706818524
scalar RSUExampleScenario.node[0].veinsmobility 	startTime 	0.1
scalar RSUExampleScenario.node[0].veinsmobility 	totalTime 	349.9
scalar RSUExampleScenario.node[0].veinsmobility 	stopTime 	350
scalar RSUExampleScenario.node[0].veinsmobility 	minSpeed 	0
scalar RSUExampleScenario.node[0].veinsmobility 	maxSpeed 	13.999989633609
scalar RSUExampleScenario.node[0].veinsmobility 	totalDistance 	3132.4228111348
scalar RSUExampleScenario.node[0].veinsmobility 	totalCO2Emission 	743.58801737106
scalar RSUExampleScenario.node[1].veinsmobility 	startTime 	2.5
scalar RSUExampleScenario.node[1].veinsmobility 	totalTime 	347.5
scalar RSUExampleScenario.node[1].veinsmobility 	stopTime 	350
scalar RSUExampleScenario.node[1].veinsmobility 	minSpeed 	0
scalar RSUExampleScenario.node[1].veinsmobility 	maxSpeed 	13.999998969708
scalar RSUExampleScenario.node[1].veinsmobility 	totalDistance 	3083.0684479777
scalar RSUExampleScenario.node[1].veinsmobility 	totalCO2Emission 	730.3408879726
scalar RSUExampleScenario.node[10].veinsmobility 	startTime 	24.2
scalar RSUExampleScenario.node[10].veinsmobility 	totalTime 	325.8
scalar RSUExampleScenario.node[10].veinsmobility 	stopTime 	350
scalar RSUExampleScenario.node[10].veinsmobility 	minSpeed 	0
scalar RSUExampleScenario.node[10].veinsmobility 	maxSpeed 	13.999995609659
scalar RSUExampleScenario.node[10].veinsmobility 	totalDistance 	2793.2606274894
scalar RSUExampleScenario.node[10].veinsmobility 	totalCO2Emission 	662.11718072585
scalar RSUExampleScenario.node[11].veinsmobility 	startTime 	26.6
scalar RSUExampleScenario.node[11].veinsmobility 	totalTime 	323.4
scalar RSUExampleScenario.node[11].veinsmobility 	stopTime 	350
scalar RSUExampleScenario.node[11].veinsmobility 	minSpeed 	0
scalar RSUExampleScenario.node[11].veinsmobility 	maxSpeed 	13.999981044705
scalar RSUExampleScenario.node[11].veinsmobility 	totalDistance 	2753.5856712367
scalar RSUExampleScenario.node[11].veinsmobility 	totalCO2Emission 	654.39088412908
scalar RSUExampleScenario.node[12].veinsmobility 	startTime 	29
scalar RSUExampleScenario.node[12].veinsmobility 	totalTime 	321
scalar RSUExampleScenario.node[12].veinsmobility 	stopTime 	350
scalar RSUExampleScenario.node[12].veinsmobility 	minSpeed 	0
scalar RSUExampleScenario.node[12].veinsmobility 	maxSpeed 	13.99979814654
scalar RSUExampleScenario.node[12].veinsmobility 	totalDistance 	2722.0199418135
scalar RSUExampleScenario.node[12].veinsmobility 	totalCO2Emission 	649.01947367137
scalar RSUExampleScenario.node[13].veinsmobility 	startTime 	31.4
scalar RSUExampleScenario.node[13].veinsmobility 	totalTime 	318.6
scalar RSUExampleScenario.node[13].veinsmobility 	stopTime 	350
scalar RSUExampleScenario.node[13].veinsmobility 	minSpeed 	0
scalar RSUExampleScenario.node[13].veinsmobility 	maxSpeed 	13.999807629681
scalar RSUExampleScenario.node[13].veinsmobility 	totalDistance 	2679.0385983224
scalar RSUExampleScenario.node[13].veinsmobility 	totalCO2Emission 	643.76727059252
scalar RSUExampleScenario.node[14].veinsmobility 	startTime 	33.8
scalar RSUExampleScenario.node[14].veinsmobility 	totalTime 	316.2
scalar RSUExampleScenario.node[14].veinsmobility 	stopTime 	350
scalar RSUExampleScenario.node[14].veinsmobility 	minSpeed 	0
scalar RSUExampleScenario.node[14].veinsmobility 	maxSpeed 	13.99989560297
scalar RSUExampleScenario.node[14].veinsmobility 	totalDistance 	2653.9572338857
scalar RSUExampleScenario.node[14].veinsmobility 	totalCO2Emission 	638.33492817235
scalar RSUExampleScenario.node[15].veinsmobility 	startTime 	36.2
scalar RSUExampleScenario.node[15].veinsmobility 	totalTime 	313.8
scalar RSUExampleScenario.node[15].veinsmobility 	stopTime 	350
scalar RSUExampleScenario.node[15].veinsmobility 	minSpeed 	0
scalar RSUExampleScenario.node[15].veinsmobility 	maxSpeed 	13.999993109221
scalar RSUExampleScenario.node[15].veinsmobility 	totalDistance 	2614.4073059615
scalar RSUExampleScenario.node[15].veinsmobility 	totalCO2Emission 	631.65540824804
scalar RSUExampleScenario.node[16].veinsmobility 	startTime 	38.6
scalar RSUExampleScenario.node[16].veinsmobility 	totalTime 	311.4
scalar RSUExampleScenario.node[16].veinsmobility 	stopTime 	350
scalar RSUExampleScenario.node[16].veinsmobility 	minSpeed 	0
scalar RSUExampleScenario.node[16].veinsmobility 	maxSpeed 	13.999975817939
scalar RSUExampleScenario.node[16].veinsmobility 	totalDistance 	2584.3152965481
scalar RSUExampleScenario.node[16].veinsmobility 	totalCO2Emission 	629.70210393162
scalar RSUExampleScenario.node[17].veinsmobility 	startTime 	41
scalar RSUExampleScenario.node[17].veinsmobility 	totalTime 	309
scalar RSUExampleScenario.node[17].veinsmobility 	stopTime 	350
scalar RSUExampleScenario.node[17].veinsmobility 	minSpeed 	0
scalar RSUExampleScenario.node[17].veinsmobility 	maxSpeed 	13.999941593294
scalar RSUExampleScenario.node[17].veinsmobility 	totalDistance 	2540.6121891514
scalar RSUExampleScenario.node[17].veinsmobility 	totalCO2Emission 	624.1217337579
scalar RSUExampleScenario.node[18].veinsmobility 	startTime 	43.4
scalar RSUExampleScenario.node[18].veinsmobility 	totalTime 	306.6
scalar RSUExampleScenario.node[18].veinsmobility 	stopTime 	350
scalar RSUExampleScenario.node[18].veinsmobility 	minSpeed 	0
scalar RSUExampleScenario.node[18].veinsmobility 	maxSpeed 	13.999993808684
scalar RSUExampleScenario.node[18].veinsmobility 	totalDistance 	2509.3203758129
scalar RSUExampleScenario.node[18].veinsmobility 	totalCO2Emission 	615.23991573521
scalar RSUExampleScenario.node[19].veinsmobility 	startTime 	45.8
scalar RSUExampleScenario.node[19].veinsmobility 	totalTime 	304.2
scalar RSUExampleScenario.node[19].veinsmobility 	stopTime 	350
scalar RSUExampleScenario.node[19].veinsmobility 	minSpeed 	0
scalar RSUExampleScenario.node[19].veinsmobility 	maxSpeed 	13.999950530583
scalar RSUExampleScenario.node[19].veinsmobility 	totalDistance 	2472.4661093515
scalar RSUExampleScenario.node[19].veinsmobility 	totalCO2Emission 	609.42924904864
scalar RSUExampleScenario.node[2].veinsmobility 	startTime 	4.9
scalar RSUExampleScenario.node[2].veinsmobility 	totalTime 	345.1
scalar RSUExampleScenario.node[2].veinsmobility 	stopTime 	350
scalar RSUExampleScenario.node[2].veinsmobility 	minSpeed 	0
scalar RSUExampleScenario.node[2].veinsmobility 	maxSpeed 	13.999978057437
scalar RSUExampleScenario.node[2].veinsmobility 	totalDistance 	3043.7512016045
scalar RSUExampleScenario.node[2].veinsmobility 	totalCO2Emission 	726.03783794611
scalar RSUExampleScenario.node[20].veinsmobility 	startTime 	48.3
scalar RSUExampleScenario.node[20].veinsmobility 	totalTime 	301.7
scalar RSUExampleScenario.node[20].veinsmobility 	stopTime 	350
scalar RSUExampleScenario.node[20].veinsmobility 	minSpeed 	0
scalar RSUExampleScenario.node[20].veinsmobility 	maxSpeed 	13.999897370469
scalar RSUExampleScenario.node[20].veinsmobility 	totalDistance 	2440.9120448203
scalar RSUExampleScenario.node[20].veinsmobility 	totalCO2Emission 	601.19740498431
scalar RSUExampleScenario.node[21].veinsmobility 	startTime 	50.7
scalar RSUExampleScenario.node[21].veinsmobility 	totalTime 	299.3
scalar RSUExampleScenario.node[21].veinsmobility 	stopTime 	350
scalar RSUExampleScenario.node[21].veinsmobility 	minSpeed 	0
scalar RSUExampleScenario.node[21].veinsmobility 	maxSpeed 	13.999985258372
scalar RSUExampleScenario.node[21].veinsmobility 	totalDistance 	2403.6102118784
scalar RSUExampleScenario.node[21].veinsmobility 	totalCO2Emission 	598.47514640306
scalar RSUExampleScenario.node[22].veinsmobility 	startTime 	53.1
scalar RSUExampleScenario.node[22].veinsmobility 	totalTime 	296.9
scalar RSUExampleScenario.node[22].veinsmobility 	stopTime 	350
scalar RSUExampleScenario.node[22].veinsmobility 	minSpeed 	0
scalar RSUExampleScenario.node[22].veinsmobility 	maxSpeed 	13.99999891686
scalar RSUExampleScenario.node[22].veinsmobility 	totalDistance 	2373.5422979722
scalar RSUExampleScenario.node[22].veinsmobility 	totalCO2Emission 	592.37809734603
scalar RSUExampleScenario.node[23].veinsmobility 	startTime 	55.5
scalar RSUExampleScenario.node[23].veinsmobility 	totalTime 	294.5
scalar RSUExampleScenario.node[23].veinsmobility 	stopTime 	350
scalar RSUExampleScenario.node[23].veinsmobility 	minSpeed 	0
scalar RSUExampleScenario.node[23].veinsmobility 	maxSpeed 	13.999984426729
scalar RSUExampleScenario.node[23].veinsmobility 	totalDistance 	2335.9868681741
scalar RSUExampleScenario.node[23].veinsmobility 	totalCO2Emission 	585.59703248623
scalar RSUExampleScenario.node[24].veinsmobility 	startTime 	57.9
scalar RSUExampleScenario.node[24].veinsmobility 	totalTime 	292.1
scalar RSUExampleScenario.node[24].veinsmobility 	stopTime 	350
scalar RSUExampleScenario.node[24].veinsmobility 	minSpeed 	0
scalar RSUExampleScenario.node[24].veinsmobility 	maxSpeed 	13.999905144952
scalar RSUExampleScenario.node[24].veinsmobility 	totalDistance 	2307.1390060829
scalar RSUExampleScenario.node[24].veinsmobility 	totalCO2Emission 	580.52556296736
scalar RSUExampleScenario.node[25].veinsmobility 	startTime 	60.3
scalar RSUExampleScenario.node[25].veinsmobility 	totalTime 	289.7
scalar RSUExampleScenario.node[25].veinsmobility 	stopTime 	350
scalar RSUExampleScenario.node[25].veinsmobility 	minSpeed 	0
scalar RSUExampleScenario.node[25].veinsmobility 	maxSpeed 	13.999964386569
scalar RSUExampleScenario.node[25].veinsmobility 	totalDistance 	2269.6096097275
scalar RSUExampleScenario.node[25].veinsmobility 	totalCO2Emission 	577.69024568714
scalar RSUExampleScenario.node[26].veinsmobility 	startTime 	62.7
scalar RSUExampleScenario.node[26].veinsmobility 	totalTime 	287.3
scalar RSUExampleScenario.node[26].veinsmobility 	stopTime 	350
scalar RSUExampleScenario.node[26].veinsmobility 	minSpeed 	0
scalar RSUExampleScenario.node[26].veinsmobility 	maxSpeed 	13.999903181982
scalar RSUExampleScenario.node[26].veinsmobility 	totalDistance 	2236.8918408779
scalar RSUExampleScenario.node[26].veinsmobility 	totalCO2Emission 	571.90958846589
scalar RSUExampleScenario.node[27].veinsmobility 	startTime 	65.1
scalar RSUExampleScenario.node[27].veinsmobility 	totalTime 	284.9
scalar RSUExampleScenario.node[27].veinsmobility 	stopTime 	350
scalar RSUExampleScenario.node[27].veinsmobility 	minSpeed 	0
scalar RSUExampleScenario.node[27].veinsmobility 	maxSpeed 	13.99975030106
scalar RSUExampleScenario.node[27].veinsmobility 	totalDistance 	2199.753669269
scalar RSUExampleScenario.node[27].veinsmobility 	totalCO2Emission 	566.01678364282
scalar RSUExampleScenario.node[28].veinsmobility 	startTime 	67.5
scalar RSUExampleScenario.node[28].veinsmobility 	totalTime 	282.5
scalar RSUExampleScenario.node[28].veinsmobility 	stopTime 	350
scalar RSUExampleScenario.node[28].veinsmobility 	minSpeed 	0
scalar RSUExampleScenario.node[28].veinsmobility 	maxSpeed 	13.999939206785
scalar RSUExampleScenario.node[28].veinsmobility 	totalDistance 	2169.1775319371
scalar RSUExampleScenario.node[28].veinsmobility 	totalCO2Emission 	557.59376941138
scalar RSUExampleScenario.node[29].veinsmobility 	startTime 	69.9
scalar RSUExampleScenario.node[29].veinsmobility 	totalTime 	280.1
scalar RSUExampleScenario.node[29].veinsmobility 	stopTime 	350
scalar RSUExampleScenario.node[29].veinsmobility 	minSpeed 	0
scalar RSUExampleScenario.node[29].veinsmobility 	maxSpeed 	13.999981147677
scalar RSUExampleScenario.node[29].veinsmobility 	totalDistance 	2133.3132120433
scalar RSUExampleScenario.node[29].veinsmobility 	totalCO2Emission 	552.54205649771
scalar RSUExampleScenario.node[3].veinsmobility 	startTime 	7.3
scalar RSUExampleScenario.node[3].veinsmobility 	totalTime 	342.7
scalar RSUExampleScenario.node[3].veinsmobility 	stopTime 	350
scalar RSUExampleScenario.node[3].veinsmobility 	minSpeed 	0
scalar RSUExampleScenario.node[3].veinsmobility 	maxSpeed 	13.999997320799
scalar RSUExampleScenario.node[3].veinsmobility 	totalDistance 	2992.7173050101
scalar RSUExampleScenario.node[3].veinsmobility 	totalCO2Emission 	718.91018260204
scalar RSUExampleScenario.node[30].veinsmobility 	startTime 	72.4
scalar RSUExampleScenario.node[30].veinsmobility 	totalTime 	277.6
scalar RSUExampleScenario.node[30].veinsmobility 	stopTime 	350
scalar RSUExampleScenario.node[30].veinsmobility 	minSpeed 	0
scalar RSUExampleScenario.node[30].veinsmobility 	maxSpeed 	13.999950288711
scalar RSUExampleScenario.node[30].veinsmobility 	totalDistance 	2102.2051452927
scalar RSUExampleScenario.node[30].veinsmobility 	totalCO2Emission 	544.51267104459
scalar RSUExampleScenario.node[31].veinsmobility 	startTime 	74.8
scalar RSUExampleScenario.node[31].veinsmobility 	totalTime 	275.2
scalar RSUExampleScenario.node[31].veinsmobility 	stopTime 	350
scalar RSUExampleScenario.node[31].veinsmobility 	minSpeed 	0
scalar RSUExampleScenario.node[31].veinsmobility 	maxSpeed 	13.999896517517
scalar RSUExampleScenario.node[31].veinsmobility 	totalDistance 	2067.6235965825
scalar RSUExampleScenario.node[31].veinsmobility 	totalCO2Emission 	541.26153749582
scalar RSUExampleScenario.node[32].veinsmobility 	startTime 	77.2
scalar RSUExampleScenario.node[32].veinsmobility 	totalTime 	272.8
scalar RSUExampleScenario.node[32].veinsmobility 	stopTime 	350
scalar RSUExampleScenario.node[32].veinsmobility 	minSpeed 	0
scalar RSUExampleScenario.node[32].veinsmobility 	maxSpeed 	13.999863597392
scalar RSUExampleScenario.node[32].veinsmobility 	totalDistance 	2034.0737564342
scalar RSUExampleScenario.node[32].veinsmobility 	totalCO2Emission 	537.19866137932
scalar RSUExampleScenario.node[33].veinsmobility 	startTime 	79.6
scalar RSUExampleScenario.node[33].veinsmobility 	totalTime 	270.4
scalar RSUExampleScenario.node[33].veinsmobility 	stopTime 	350
scalar RSUExampleScenario.node[33].veinsmobility 	minSpeed 	0
scalar RSUExampleScenario.node[33].veinsmobility 	maxSpeed 	13.999977398836
scalar RSUExampleScenario.node[33].veinsmobility 	totalDistance 	2000.1073268915
scalar RSUExampleScenario.node[33].veinsmobility 	totalCO2Emission 	527.83980323056
scalar RSUExampleScenario.node[34].veinsmobility 	startTime 	82
scalar RSUExampleScenario.node[34].veinsmobility 	totalTime 	268
scalar RSUExampleScenario.node[34].veinsmobility 	stopTime 	350
scalar RSUExampleScenario.node[34].veinsmobility 	minSpeed 	0
scalar RSUExampleScenario.node[34].veinsmobility 	maxSpeed 	13.999864040606
scalar RSUExampleScenario.node[34].veinsmobility 	totalDistance 	1966.0585965331
scalar RSUExampleScenario.node[34].veinsmobility 	totalCO2Emission 	523.13257565417
scalar RSUExampleScenario.node[35].veinsmobility 	startTime 	84.4
scalar RSUExampleScenario.node[35].veinsmobility 	totalTime 	265.6
scalar RSUExampleScenario.node[35].veinsmobility 	stopTime 	350
scalar RSUExampleScenario.node[35].veinsmobility 	minSpeed 	0
scalar RSUExampleScenario.node[35].veinsmobility 	maxSpeed 	13.999917179351
scalar RSUExampleScenario.node[35].veinsmobility 	totalDistance 	1932.8697969405
scalar RSUExampleScenario.node[35].veinsmobility 	totalCO2Emission 	517.13174437472
scalar RSUExampleScenario.node[36].veinsmobility 	startTime 	86.8
scalar RSUExampleScenario.node[36].veinsmobility 	totalTime 	263.2
scalar RSUExampleScenario.node[36].veinsmobility 	stopTime 	350
scalar RSUExampleScenario.node[36].veinsmobility 	minSpeed 	0
scalar RSUExampleScenario.node[36].veinsmobility 	maxSpeed 	13.999935264199
scalar RSUExampleScenario.node[36].veinsmobility 	totalDistance 	1897.750204913
scalar RSUExampleScenario.node[36].veinsmobility 	totalCO2Emission 	513.84410258105
scalar RSUExampleScenario.node[37].veinsmobility 	startTime 	89.2
scalar RSUExampleScenario.node[37].veinsmobility 	totalTime 	260.8
scalar RSUExampleScenario.node[37].veinsmobility 	stopTime 	350
scalar RSUExampleScenario.node[37].veinsmobility 	minSpeed 	0
scalar RSUExampleScenario.node[37].veinsmobility 	maxSpeed 	13.999815741228
scalar RSUExampleScenario.node[37].veinsmobility 	totalDistance 	1863.8243138163
scalar RSUExampleScenario.node[37].veinsmobility 	totalCO2Emission 	506.48856257621
scalar RSUExampleScenario.node[38].veinsmobility 	startTime 	91.6
scalar RSUExampleScenario.node[38].veinsmobility 	totalTime 	258.4
scalar RSUExampleScenario.node[38].veinsmobility 	stopTime 	350
scalar RSUExampleScenario.node[38].veinsmobility 	minSpeed 	0
scalar RSUExampleScenario.node[38].veinsmobility 	maxSpeed 	13.999743751795
scalar RSUExampleScenario.node[38].veinsmobility 	totalDistance 	1831.3903666913
scalar RSUExampleScenario.node[38].veinsmobility 	totalCO2Emission 	501.64103543097
scalar RSUExampleScenario.node[39].veinsmobility 	startTime 	94
scalar RSUExampleScenario.node[39].veinsmobility 	totalTime 	256
scalar RSUExampleScenario.node[39].veinsmobility 	stopTime 	350
scalar RSUExampleScenario.node[39].veinsmobility 	minSpeed 	0
scalar RSUExampleScenario.node[39].veinsmobility 	maxSpeed 	13.999855826753
scalar RSUExampleScenario.node[39].veinsmobility 	totalDistance 	1797.9469334961
scalar RSUExampleScenario.node[39].veinsmobility 	totalCO2Emission 	493.35705502458
scalar RSUExampleScenario.node[4].veinsmobility 	startTime 	9.7
scalar RSUExampleScenario.node[4].veinsmobility 	totalTime 	340.3
scalar RSUExampleScenario.node[4].veinsmobility 	stopTime 	350
scalar RSUExampleScenario.node[4].veinsmobility 	minSpeed 	0
scalar RSUExampleScenario.node[4].veinsmobility 	maxSpeed 	13.999966351627
scalar RSUExampleScenario.node[4].veinsmobility 	totalDistance 	2953.827529906
scalar RSUExampleScenario.node[4].veinsmobility 	totalCO2Emission 	704.99262918067
scalar RSUExampleScenario.node[40].veinsmobility 	startTime 	96.5
scalar RSUExampleScenario.node[40].veinsmobility 	totalTime 	253.5
scalar RSUExampleScenario.node[40].veinsmobility 	stopTime 	350
scalar RSUExampleScenario.node[40].veinsmobility 	minSpeed 	0
scalar RSUExampleScenario.node[40].veinsmobility 	maxSpeed 	13.999917122144
scalar RSUExampleScenario.node[40].veinsmobility 	totalDistance 	1761.0362550211
scalar RSUExampleScenario.node[40].veinsmobility 	totalCO2Emission 	486.87014393925
scalar RSUExampleScenario.node[41].veinsmobility 	startTime 	98.9
scalar RSUExampleScenario.node[41].veinsmobility 	totalTime 	251.1
scalar RSUExampleScenario.node[41].veinsmobility 	stopTime 	350
scalar RSUExampleScenario.node[41].veinsmobility 	minSpeed 	0
scalar RSUExampleScenario.node[41].veinsmobility 	maxSpeed 	13.999935750696
scalar RSUExampleScenario.node[41].veinsmobility 	totalDistance 	1729.5688160469
scalar RSUExampleScenario.node[41].veinsmobility 	totalCO2Emission 	484.33261822318
scalar RSUExampleScenario.node[42].veinsmobility 	startTime 	101.3
scalar RSUExampleScenario.node[42].veinsmobility 	totalTime 	248.7
scalar RSUExampleScenario.node[42].veinsmobility 	stopTime 	350
scalar RSUExampleScenario.node[42].veinsmobility 	minSpeed 	0
scalar RSUExampleScenario.node[42].veinsmobility 	maxSpeed 	13.999979630101
scalar RSUExampleScenario.node[42].veinsmobility 	totalDistance 	1695.5930483538
scalar RSUExampleScenario.node[42].veinsmobility 	totalCO2Emission 	479.8201660312
scalar RSUExampleScenario.node[43].veinsmobility 	startTime 	103.7
scalar RSUExampleScenario.node[43].veinsmobility 	totalTime 	246.3
scalar RSUExampleScenario.node[43].veinsmobility 	stopTime 	350
scalar RSUExampleScenario.node[43].veinsmobility 	minSpeed 	0
scalar RSUExampleScenario.node[43].veinsmobility 	maxSpeed 	13.999850282567
scalar RSUExampleScenario.node[43].veinsmobility 	totalDistance 	1661.0161287464
scalar RSUExampleScenario.node[43].veinsmobility 	totalCO2Emission 	474.57021844089
scalar RSUExampleScenario.node[44].veinsmobility 	startTime 	106.1
scalar RSUExampleScenario.node[44].veinsmobility 	totalTime 	243.9
scalar RSUExampleScenario.node[44].veinsmobility 	stopTime 	350
scalar RSUExampleScenario.node[44].veinsmobility 	minSpeed 	0
scalar RSUExampleScenario.node[44].veinsmobility 	maxSpeed 	13.999899522795
scalar RSUExampleScenario.node[44].veinsmobility 	totalDistance 	1629.2037476967
scalar RSUExampleScenario.node[44].veinsmobility 	totalCO2Emission 	464.90445019459
scalar RSUExampleScenario.node[45].veinsmobility 	startTime 	108.5
scalar RSUExampleScenario.node[45].veinsmobility 	totalTime 	241.5
scalar RSUExampleScenario.node[45].veinsmobility 	stopTime 	350
scalar RSUExampleScenario.node[45].veinsmobility 	minSpeed 	0
scalar RSUExampleScenario.node[45].veinsmobility 	maxSpeed 	13.999957410949
scalar RSUExampleScenario.node[45].veinsmobility 	totalDistance 	1594.5079663119
scalar RSUExampleScenario.node[45].veinsmobility 	totalCO2Emission 	461.07056471794
scalar RSUExampleScenario.node[46].veinsmobility 	startTime 	110.9
scalar RSUExampleScenario.node[46].veinsmobility 	totalTime 	239.1
scalar RSUExampleScenario.node[46].veinsmobility 	stopTime 	350
scalar RSUExampleScenario.node[46].veinsmobility 	minSpeed 	0
scalar RSUExampleScenario.node[46].veinsmobility 	maxSpeed 	13.999872651817
scalar RSUExampleScenario.node[46].veinsmobility 	totalDistance 	1562.1669319765
scalar RSUExampleScenario.node[46].veinsmobility 	totalCO2Emission 	455.97241031787
scalar RSUExampleScenario.node[47].veinsmobility 	startTime 	113.3
scalar RSUExampleScenario.node[47].veinsmobility 	totalTime 	236.7
scalar RSUExampleScenario.node[47].veinsmobility 	stopTime 	350
scalar RSUExampleScenario.node[47].veinsmobility 	minSpeed 	0
scalar RSUExampleScenario.node[47].veinsmobility 	maxSpeed 	13.999834173643
scalar RSUExampleScenario.node[47].veinsmobility 	totalDistance 	1526.905002027
scalar RSUExampleScenario.node[47].veinsmobility 	totalCO2Emission 	445.99348386212
scalar RSUExampleScenario.node[48].veinsmobility 	startTime 	115.7
scalar RSUExampleScenario.node[48].veinsmobility 	totalTime 	234.3
scalar RSUExampleScenario.node[48].veinsmobility 	stopTime 	350
scalar RSUExampleScenario.node[48].veinsmobility 	minSpeed 	0
scalar RSUExampleScenario.node[48].veinsmobility 	maxSpeed 	13.999933909676
scalar RSUExampleScenario.node[48].veinsmobility 	totalDistance 	1494.885996198
scalar RSUExampleScenario.node[48].veinsmobility 	totalCO2Emission 	445.28263618847
scalar RSUExampleScenario.node[49].veinsmobility 	startTime 	118.1
scalar RSUExampleScenario.node[49].veinsmobility 	totalTime 	231.9
scalar RSUExampleScenario.node[49].veinsmobility 	stopTime 	350
scalar RSUExampleScenario.node[49].veinsmobility 	minSpeed 	0
scalar RSUExampleScenario.node[49].veinsmobility 	maxSpeed 	13.999818737123
scalar RSUExampleScenario.node[49].veinsmobility 	totalDistance 	1459.2639531819
scalar RSUExampleScenario.node[49].veinsmobility 	totalCO2Emission 	440.09468729224
scalar RSUExampleScenario.node[5].veinsmobility 	startTime 	12.1
scalar RSUExampleScenario.node[5].veinsmobility 	totalTime 	337.9
scalar RSUExampleScenario.node[5].veinsmobility 	stopTime 	350
scalar RSUExampleScenario.node[5].veinsmobility 	minSpeed 	0
scalar RSUExampleScenario.node[5].veinsmobility 	maxSpeed 	13.999871604212
scalar RSUExampleScenario.node[5].veinsmobility 	totalDistance 	2914.7085658533
scalar RSUExampleScenario.node[5].veinsmobility 	totalCO2Emission 	682.27987172015
scalar RSUExampleScenario.node[50].veinsmobility 	startTime 	120.6
scalar RSUExampleScenario.node[50].veinsmobility 	totalTime 	229.4
scalar RSUExampleScenario.node[50].veinsmobility 	stopTime 	350
scalar RSUExampleScenario.node[50].veinsmobility 	minSpeed 	0
scalar RSUExampleScenario.node[50].veinsmobility 	maxSpeed 	13.999506963331
scalar RSUExampleScenario.node[50].veinsmobility 	totalDistance 	1427.1212352221
scalar RSUExampleScenario.node[50].veinsmobility 	totalCO2Emission 	432.74946012639
scalar RSUExampleScenario.node[51].veinsmobility 	startTime 	123
scalar RSUExampleScenario.node[51].veinsmobility 	totalTime 	227
scalar RSUExampleScenario.node[51].veinsmobility 	stopTime 	350
scalar RSUExampleScenario.node[51].veinsmobility 	minSpeed 	0
scalar RSUExampleScenario.node[51].veinsmobility 	maxSpeed 	13.99994974755
scalar RSUExampleScenario.node[51].veinsmobility 	totalDistance 	1392.8251567379
scalar RSUExampleScenario.node[51].veinsmobility 	totalCO2Emission 	427.49955605801
scalar RSUExampleScenario.node[52].veinsmobility 	startTime 	125.4
scalar RSUExampleScenario.node[52].veinsmobility 	totalTime 	224.6
scalar RSUExampleScenario.node[52].veinsmobility 	stopTime 	350
scalar RSUExampleScenario.node[52].veinsmobility 	minSpeed 	0
scalar RSUExampleScenario.node[52].veinsmobility 	maxSpeed 	13.999775328385
scalar RSUExampleScenario.node[52].veinsmobility 	totalDistance 	1359.5983982314
scalar RSUExampleScenario.node[52].veinsmobility 	totalCO2Emission 	423.59275266495
scalar RSUExampleScenario.node[53].veinsmobility 	startTime 	127.8
scalar RSUExampleScenario.node[53].veinsmobility 	totalTime 	222.2
scalar RSUExampleScenario.node[53].veinsmobility 	stopTime 	350
scalar RSUExampleScenario.node[53].veinsmobility 	minSpeed 	0
scalar RSUExampleScenario.node[53].veinsmobility 	maxSpeed 	13.999822690121
scalar RSUExampleScenario.node[53].veinsmobility 	totalDistance 	1327.1517521799
scalar RSUExampleScenario.node[53].veinsmobility 	totalCO2Emission 	418.14916403471
scalar RSUExampleScenario.node[54].veinsmobility 	startTime 	130.2
scalar RSUExampleScenario.node[54].veinsmobility 	totalTime 	219.8
scalar RSUExampleScenario.node[54].veinsmobility 	stopTime 	350
scalar RSUExampleScenario.node[54].veinsmobility 	minSpeed 	0
scalar RSUExampleScenario.node[54].veinsmobility 	maxSpeed 	13.999869690579
scalar RSUExampleScenario.node[54].veinsmobility 	totalDistance 	1293.9214813597
scalar RSUExampleScenario.node[54].veinsmobility 	totalCO2Emission 	413.26180350978
scalar RSUExampleScenario.node[55].veinsmobility 	startTime 	132.6
scalar RSUExampleScenario.node[55].veinsmobility 	totalTime 	217.4
scalar RSUExampleScenario.node[55].veinsmobility 	stopTime 	350
scalar RSUExampleScenario.node[55].veinsmobility 	minSpeed 	0
scalar RSUExampleScenario.node[55].veinsmobility 	maxSpeed 	13.999373153872
scalar RSUExampleScenario.node[55].veinsmobility 	totalDistance 	1256.3912684375
scalar RSUExampleScenario.node[55].veinsmobility 	totalCO2Emission 	404.54730266902
scalar RSUExampleScenario.node[56].veinsmobility 	startTime 	135
scalar RSUExampleScenario.node[56].veinsmobility 	totalTime 	215
scalar RSUExampleScenario.node[56].veinsmobility 	stopTime 	350
scalar RSUExampleScenario.node[56].veinsmobility 	minSpeed 	0
scalar RSUExampleScenario.node[56].veinsmobility 	maxSpeed 	13.999731906813
scalar RSUExampleScenario.node[56].veinsmobility 	totalDistance 	1224.0162641494
scalar RSUExampleScenario.node[56].veinsmobility 	totalCO2Emission 	399.46196055001
scalar RSUExampleScenario.node[57].veinsmobility 	startTime 	137.4
scalar RSUExampleScenario.node[57].veinsmobility 	totalTime 	212.6
scalar RSUExampleScenario.node[57].veinsmobility 	stopTime 	350
scalar RSUExampleScenario.node[57].veinsmobility 	minSpeed 	0
scalar RSUExampleScenario.node[57].veinsmobility 	maxSpeed 	13.999894787974
scalar RSUExampleScenario.node[57].veinsmobility 	totalDistance 	1190.3821604655
scalar RSUExampleScenario.node[57].veinsmobility 	totalCO2Emission 	393.17714316123
scalar RSUExampleScenario.node[58].veinsmobility 	startTime 	139.8
scalar RSUExampleScenario.node[58].veinsmobility 	totalTime 	210.2
scalar RSUExampleScenario.node[58].veinsmobility 	stopTime 	350
scalar RSUExampleScenario.node[58].veinsmobility 	minSpeed 	0
scalar RSUExampleScenario.node[58].veinsmobility 	maxSpeed 	13.999872826887
scalar RSUExampleScenario.node[58].veinsmobility 	totalDistance 	1156.9712728094
scalar RSUExampleScenario.node[58].veinsmobility 	totalCO2Emission 	386.69355804636
scalar RSUExampleScenario.node[59].veinsmobility 	startTime 	142.2
scalar RSUExampleScenario.node[59].veinsmobility 	totalTime 	207.8
scalar RSUExampleScenario.node[59].veinsmobility 	stopTime 	350
scalar RSUExampleScenario.node[59].veinsmobility 	minSpeed 	0
scalar RSUExampleScenario.node[59].veinsmobility 	maxSpeed 	13.999050257776
scalar RSUExampleScenario.node[59].veinsmobility 	totalDistance 	1124.3074500184
scalar RSUExampleScenario.node[59].veinsmobility 	totalCO2Emission 	382.878311856
scalar RSUExampleScenario.node[6].veinsmobility 	startTime 	14.5
scalar RSUExampleScenario.node[6].veinsmobility 	totalTime 	335.5
scalar RSUExampleScenario.node[6].veinsmobility 	stopTime 	350
scalar RSUExampleScenario.node[6].veinsmobility 	minSpeed 	0
scalar RSUExampleScenario.node[6].veinsmobility 	maxSpeed 	13.999961293121
scalar RSUExampleScenario.node[6].veinsmobility 	totalDistance 	2906.3430732435
scalar RSUExampleScenario.node[6].veinsmobility 	totalCO2Emission 	683.89215791765
scalar RSUExampleScenario.node[60].veinsmobility 	startTime 	144.7
scalar RSUExampleScenario.node[60].veinsmobility 	totalTime 	205.3
scalar RSUExampleScenario.node[60].veinsmobility 	stopTime 	350
scalar RSUExampleScenario.node[60].veinsmobility 	minSpeed 	0
scalar RSUExampleScenario.node[60].veinsmobility 	maxSpeed 	13.999921658346
scalar RSUExampleScenario.node[60].veinsmobility 	totalDistance 	1091.0105832632
scalar RSUExampleScenario.node[60].veinsmobility 	totalCO2Emission 	375.10888653151
scalar RSUExampleScenario.node[61].veinsmobility 	startTime 	147.1
scalar RSUExampleScenario.node[61].veinsmobility 	totalTime 	202.9
scalar RSUExampleScenario.node[61].veinsmobility 	stopTime 	350
scalar RSUExampleScenario.node[61].veinsmobility 	minSpeed 	0
scalar RSUExampleScenario.node[61].veinsmobility 	maxSpeed 	13.999587566275
scalar RSUExampleScenario.node[61].veinsmobility 	totalDistance 	1057.345794144
scalar RSUExampleScenario.node[61].veinsmobility 	totalCO2Emission 	369.69299911395
scalar RSUExampleScenario.node[62].veinsmobility 	startTime 	149.5
scalar RSUExampleScenario.node[62].veinsmobility 	totalTime 	200.5
scalar RSUExampleScenario.node[62].veinsmobility 	stopTime 	350
scalar RSUExampleScenario.node[62].veinsmobility 	minSpeed 	0
scalar RSUExampleScenario.node[62].veinsmobility 	maxSpeed 	13.99986441487
scalar RSUExampleScenario.node[62].veinsmobility 	totalDistance 	1023.0520910878
scalar RSUExampleScenario.node[62].veinsmobility 	totalCO2Emission 	362.83139701299
scalar RSUExampleScenario.node[63].veinsmobility 	startTime 	151.9
scalar RSUExampleScenario.node[63].veinsmobility 	totalTime 	198.1
scalar RSUExampleScenario.node[63].veinsmobility 	stopTime 	350
scalar RSUExampleScenario.node[63].veinsmobility 	minSpeed 	0
scalar RSUExampleScenario.node[63].veinsmobility 	maxSpeed 	13.999822118813
scalar RSUExampleScenario.node[63].veinsmobility 	totalDistance 	985.8346129509
scalar RSUExampleScenario.node[63].veinsmobility 	totalCO2Emission 	351.83193107901
scalar RSUExampleScenario.node[64].veinsmobility 	startTime 	154.3
scalar RSUExampleScenario.node[64].veinsmobility 	totalTime 	195.7
scalar RSUExampleScenario.node[64].veinsmobility 	stopTime 	350
scalar RSUExampleScenario.node[64].veinsmobility 	minSpeed 	0
scalar RSUExampleScenario.node[64].veinsmobility 	maxSpeed 	13.999395759788
scalar RSUExampleScenario.node[64].veinsmobility 	totalDistance 	953.4655071328
scalar RSUExampleScenario.node[64].veinsmobility 	totalCO2Emission 	337.5921388485
scalar RSUExampleScenario.node[65].veinsmobility 	startTime 	156.7
scalar RSUExampleScenario.node[65].veinsmobility 	totalTime 	193.3
scalar RSUExampleScenario.node[65].veinsmobility 	stopTime 	350
scalar RSUExampleScenario.node[65].veinsmobility 	minSpeed 	0
scalar RSUExampleScenario.node[65].veinsmobility 	maxSpeed 	13.999453977349
scalar RSUExampleScenario.node[65].veinsmobility 	totalDistance 	940.20198787752
scalar RSUExampleScenario.node[65].veinsmobility 	totalCO2Emission 	330.42139997847
scalar RSUExampleScenario.node[66].veinsmobility 	startTime 	159.1
scalar RSUExampleScenario.node[66].veinsmobility 	totalTime 	190.9
scalar RSUExampleScenario.node[66].veinsmobility 	stopTime 	350
scalar RSUExampleScenario.node[66].veinsmobility 	minSpeed 	0
scalar RSUExampleScenario.node[66].veinsmobility 	maxSpeed 	13.999618101283
scalar RSUExampleScenario.node[66].veinsmobility 	totalDistance 	927.84242734017
scalar RSUExampleScenario.node[66].veinsmobility 	totalCO2Emission 	326.37958017537
scalar RSUExampleScenario.node[67].veinsmobility 	startTime 	161.5
scalar RSUExampleScenario.node[67].veinsmobility 	totalTime 	188.5
scalar RSUExampleScenario.node[67].veinsmobility 	stopTime 	350
scalar RSUExampleScenario.node[67].veinsmobility 	minSpeed 	0
scalar RSUExampleScenario.node[67].veinsmobility 	maxSpeed 	13.999968081957
scalar RSUExampleScenario.node[67].veinsmobility 	totalDistance 	912.49503449322
scalar RSUExampleScenario.node[67].veinsmobility 	totalCO2Emission 	324.75458183569
scalar RSUExampleScenario.node[68].veinsmobility 	startTime 	163.9
scalar RSUExampleScenario.node[68].veinsmobility 	totalTime 	186.1
scalar RSUExampleScenario.node[68].veinsmobility 	stopTime 	350
scalar RSUExampleScenario.node[68].veinsmobility 	minSpeed 	0
scalar RSUExampleScenario.node[68].veinsmobility 	maxSpeed 	13.99996339163
scalar RSUExampleScenario.node[68].veinsmobility 	totalDistance 	891.80782205529
scalar RSUExampleScenario.node[68].veinsmobility 	totalCO2Emission 	322.32629701466
scalar RSUExampleScenario.node[69].veinsmobility 	startTime 	166.3
scalar RSUExampleScenario.node[69].veinsmobility 	totalTime 	183.7
scalar RSUExampleScenario.node[69].veinsmobility 	stopTime 	350
scalar RSUExampleScenario.node[69].veinsmobility 	minSpeed 	0
scalar RSUExampleScenario.node[69].veinsmobility 	maxSpeed 	13.999299526487
scalar RSUExampleScenario.node[69].veinsmobility 	totalDistance 	857.81307865628
scalar RSUExampleScenario.node[69].veinsmobility 	totalCO2Emission 	316.09384054778
scalar RSUExampleScenario.node[7].veinsmobility 	startTime 	16.9
scalar RSUExampleScenario.node[7].veinsmobility 	totalTime 	333.1
scalar RSUExampleScenario.node[7].veinsmobility 	stopTime 	350
scalar RSUExampleScenario.node[7].veinsmobility 	minSpeed 	0
scalar RSUExampleScenario.node[7].veinsmobility 	maxSpeed 	13.999859961935
scalar RSUExampleScenario.node[7].veinsmobility 	totalDistance 	2886.1087118425
scalar RSUExampleScenario.node[7].veinsmobility 	totalCO2Emission 	677.06913333515
scalar RSUExampleScenario.node[70].veinsmobility 	startTime 	168.8
scalar RSUExampleScenario.node[70].veinsmobility 	totalTime 	181.2
scalar RSUExampleScenario.node[70].veinsmobility 	stopTime 	350
scalar RSUExampleScenario.node[70].veinsmobility 	minSpeed 	0
scalar RSUExampleScenario.node[70].veinsmobility 	maxSpeed 	13.999173191737
scalar RSUExampleScenario.node[70].veinsmobility 	totalDistance 	826.03836614155
scalar RSUExampleScenario.node[70].veinsmobility 	totalCO2Emission 	309.73308962732
scalar RSUExampleScenario.node[71].veinsmobility 	startTime 	171.2
scalar RSUExampleScenario.node[71].veinsmobility 	totalTime 	178.8
scalar RSUExampleScenario.node[71].veinsmobility 	stopTime 	350
scalar RSUExampleScenario.node[71].veinsmobility 	minSpeed 	0
scalar RSUExampleScenario.node[71].veinsmobility 	maxSpeed 	13.999697569571
scalar RSUExampleScenario.node[71].veinsmobility 	totalDistance 	791.18056031231
scalar RSUExampleScenario.node[71].veinsmobility 	totalCO2Emission 	301.71035585805
scalar RSUExampleScenario.node[72].veinsmobility 	startTime 	173.6
scalar RSUExampleScenario.node[72].veinsmobility 	totalTime 	176.4
scalar RSUExampleScenario.node[72].veinsmobility 	stopTime 	350
scalar RSUExampleScenario.node[72].veinsmobility 	minSpeed 	0
scalar RSUExampleScenario.node[72].veinsmobility 	maxSpeed 	13.999957581903
scalar RSUExampleScenario.node[72].veinsmobility 	totalDistance 	758.724238125
scalar RSUExampleScenario.node[72].veinsmobility 	totalCO2Emission 	301.29790020104
scalar RSUExampleScenario.node[73].veinsmobility 	startTime 	176
scalar RSUExampleScenario.node[73].veinsmobility 	totalTime 	174
scalar RSUExampleScenario.node[73].veinsmobility 	stopTime 	350
scalar RSUExampleScenario.node[73].veinsmobility 	minSpeed 	0
scalar RSUExampleScenario.node[73].veinsmobility 	maxSpeed 	13.999024889423
scalar RSUExampleScenario.node[73].veinsmobility 	totalDistance 	725.38565429294
scalar RSUExampleScenario.node[73].veinsmobility 	totalCO2Emission 	293.49859524757
scalar RSUExampleScenario.node[74].veinsmobility 	startTime 	178.4
scalar RSUExampleScenario.node[74].veinsmobility 	totalTime 	171.6
scalar RSUExampleScenario.node[74].veinsmobility 	stopTime 	350
scalar RSUExampleScenario.node[74].veinsmobility 	minSpeed 	0
scalar RSUExampleScenario.node[74].veinsmobility 	maxSpeed 	13.999880368065
scalar RSUExampleScenario.node[74].veinsmobility 	totalDistance 	690.84031613898
scalar RSUExampleScenario.node[74].veinsmobility 	totalCO2Emission 	286.72280959222
scalar RSUExampleScenario.node[75].veinsmobility 	startTime 	180.8
scalar RSUExampleScenario.node[75].veinsmobility 	totalTime 	169.2
scalar RSUExampleScenario.node[75].veinsmobility 	stopTime 	350
scalar RSUExampleScenario.node[75].veinsmobility 	minSpeed 	0
scalar RSUExampleScenario.node[75].veinsmobility 	maxSpeed 	13.999747798473
scalar RSUExampleScenario.node[75].veinsmobility 	totalDistance 	659.30089444326
scalar RSUExampleScenario.node[75].veinsmobility 	totalCO2Emission 	280.69648689607
scalar RSUExampleScenario.node[76].veinsmobility 	startTime 	183.2
scalar RSUExampleScenario.node[76].veinsmobility 	totalTime 	166.8
scalar RSUExampleScenario.node[76].veinsmobility 	stopTime 	350
scalar RSUExampleScenario.node[76].veinsmobility 	minSpeed 	0
scalar RSUExampleScenario.node[76].veinsmobility 	maxSpeed 	13.999451284285
scalar RSUExampleScenario.node[76].veinsmobility 	totalDistance 	624.09638766608
scalar RSUExampleScenario.node[76].veinsmobility 	totalCO2Emission 	277.63353121706
scalar RSUExampleScenario.node[77].veinsmobility 	startTime 	185.6
scalar RSUExampleScenario.node[77].veinsmobility 	totalTime 	164.4
scalar RSUExampleScenario.node[77].veinsmobility 	stopTime 	350
scalar RSUExampleScenario.node[77].veinsmobility 	minSpeed 	0
scalar RSUExampleScenario.node[77].veinsmobility 	maxSpeed 	13.999792165465
scalar RSUExampleScenario.node[77].veinsmobility 	totalDistance 	591.29611895595
scalar RSUExampleScenario.node[77].veinsmobility 	totalCO2Emission 	270.43817404792
scalar RSUExampleScenario.node[78].veinsmobility 	startTime 	188
scalar RSUExampleScenario.node[78].veinsmobility 	totalTime 	162
scalar RSUExampleScenario.node[78].veinsmobility 	stopTime 	350
scalar RSUExampleScenario.node[78].veinsmobility 	minSpeed 	0
scalar RSUExampleScenario.node[78].veinsmobility 	maxSpeed 	13.999690824624
scalar RSUExampleScenario.node[78].veinsmobility 	totalDistance 	557.65964294733
scalar RSUExampleScenario.node[78].veinsmobility 	totalCO2Emission 	264.48933040351
scalar RSUExampleScenario.node[79].veinsmobility 	startTime 	190.4
scalar RSUExampleScenario.node[79].veinsmobility 	totalTime 	159.6
scalar RSUExampleScenario.node[79].veinsmobility 	stopTime 	350
scalar RSUExampleScenario.node[79].veinsmobility 	minSpeed 	0
scalar RSUExampleScenario.node[79].veinsmobility 	maxSpeed 	13.999127526279
scalar RSUExampleScenario.node[79].veinsmobility 	totalDistance 	525.05047149471
scalar RSUExampleScenario.node[79].veinsmobility 	totalCO2Emission 	259.42725181933
scalar RSUExampleScenario.node[8].veinsmobility 	startTime 	19.3
scalar RSUExampleScenario.node[8].veinsmobility 	totalTime 	330.7
scalar RSUExampleScenario.node[8].veinsmobility 	stopTime 	350
scalar RSUExampleScenario.node[8].veinsmobility 	minSpeed 	0
scalar RSUExampleScenario.node[8].veinsmobility 	maxSpeed 	13.99999673805
scalar RSUExampleScenario.node[8].veinsmobility 	totalDistance 	2864.4119293181
scalar RSUExampleScenario.node[8].veinsmobility 	totalCO2Emission 	674.7312283231
scalar RSUExampleScenario.node[80].veinsmobility 	startTime 	192.9
scalar RSUExampleScenario.node[80].veinsmobility 	totalTime 	157.1
scalar RSUExampleScenario.node[80].veinsmobility 	stopTime 	350
scalar RSUExampleScenario.node[80].veinsmobility 	minSpeed 	0
scalar RSUExampleScenario.node[80].veinsmobility 	maxSpeed 	13.999756434322
scalar RSUExampleScenario.node[80].veinsmobility 	totalDistance 	491.5502241265
scalar RSUExampleScenario.node[80].veinsmobility 	totalCO2Emission 	252.93782440498
scalar RSUExampleScenario.node[81].veinsmobility 	startTime 	195.3
scalar RSUExampleScenario.node[81].veinsmobility 	totalTime 	154.7
scalar RSUExampleScenario.node[81].veinsmobility 	stopTime 	350
scalar RSUExampleScenario.node[81].veinsmobility 	minSpeed 	0
scalar RSUExampleScenario.node[81].veinsmobility 	maxSpeed 	13.999086366573
scalar RSUExampleScenario.node[81].veinsmobility 	totalDistance 	455.94173776202
scalar RSUExampleScenario.node[81].veinsmobility 	totalCO2Emission 	247.92489880597
scalar RSUExampleScenario.node[82].veinsmobility 	startTime 	197.7
scalar RSUExampleScenario.node[82].veinsmobility 	totalTime 	152.3
scalar RSUExampleScenario.node[82].veinsmobility 	stopTime 	350
scalar RSUExampleScenario.node[82].veinsmobility 	minSpeed 	0
scalar RSUExampleScenario.node[82].veinsmobility 	maxSpeed 	13.999264276817
scalar RSUExampleScenario.node[82].veinsmobility 	totalDistance 	424.25398660855
scalar RSUExampleScenario.node[82].veinsmobility 	totalCO2Emission 	242.58601833697
scalar RSUExampleScenario.node[83].veinsmobility 	startTime 	200.1
scalar RSUExampleScenario.node[83].veinsmobility 	totalTime 	149.9
scalar RSUExampleScenario.node[83].veinsmobility 	stopTime 	350
scalar RSUExampleScenario.node[83].veinsmobility 	minSpeed 	0
scalar RSUExampleScenario.node[83].veinsmobility 	maxSpeed 	13.999330253364
scalar RSUExampleScenario.node[83].veinsmobility 	totalDistance 	391.52983902018
scalar RSUExampleScenario.node[83].veinsmobility 	totalCO2Emission 	237.40193761909
scalar RSUExampleScenario.node[84].veinsmobility 	startTime 	202.5
scalar RSUExampleScenario.node[84].veinsmobility 	totalTime 	147.5
scalar RSUExampleScenario.node[84].veinsmobility 	stopTime 	350
scalar RSUExampleScenario.node[84].veinsmobility 	minSpeed 	0
scalar RSUExampleScenario.node[84].veinsmobility 	maxSpeed 	13.995666268084
scalar RSUExampleScenario.node[84].veinsmobility 	totalDistance 	357.21487124723
scalar RSUExampleScenario.node[84].veinsmobility 	totalCO2Emission 	230.65301432678
scalar RSUExampleScenario.node[85].veinsmobility 	startTime 	204.9
scalar RSUExampleScenario.node[85].veinsmobility 	totalTime 	145.1
scalar RSUExampleScenario.node[85].veinsmobility 	stopTime 	350
scalar RSUExampleScenario.node[85].veinsmobility 	minSpeed 	0
scalar RSUExampleScenario.node[85].veinsmobility 	maxSpeed 	13.997821826998
scalar RSUExampleScenario.node[85].veinsmobility 	totalDistance 	324.05933970581
scalar RSUExampleScenario.node[85].veinsmobility 	totalCO2Emission 	225.5352349574
scalar RSUExampleScenario.node[86].veinsmobility 	startTime 	207.3
scalar RSUExampleScenario.node[86].veinsmobility 	totalTime 	142.7
scalar RSUExampleScenario.node[86].veinsmobility 	stopTime 	350
scalar RSUExampleScenario.node[86].veinsmobility 	minSpeed 	0
scalar RSUExampleScenario.node[86].veinsmobility 	maxSpeed 	13.782672093788
scalar RSUExampleScenario.node[86].veinsmobility 	totalDistance 	287.8900775441
scalar RSUExampleScenario.node[86].veinsmobility 	totalCO2Emission 	217.97909005787
scalar RSUExampleScenario.node[87].veinsmobility 	startTime 	209.7
scalar RSUExampleScenario.node[87].veinsmobility 	totalTime 	140.3
scalar RSUExampleScenario.node[87].veinsmobility 	stopTime 	350
scalar RSUExampleScenario.node[87].veinsmobility 	minSpeed 	0
scalar RSUExampleScenario.node[87].veinsmobility 	maxSpeed 	13.819721496741
scalar RSUExampleScenario.node[87].veinsmobility 	totalDistance 	250.42817320539
scalar RSUExampleScenario.node[87].veinsmobility 	totalCO2Emission 	202.31116770573
scalar RSUExampleScenario.node[88].veinsmobility 	startTime 	212.1
scalar RSUExampleScenario.node[88].veinsmobility 	totalTime 	137.9
scalar RSUExampleScenario.node[88].veinsmobility 	stopTime 	350
scalar RSUExampleScenario.node[88].veinsmobility 	minSpeed 	0
scalar RSUExampleScenario.node[88].veinsmobility 	maxSpeed 	13.878223323771
scalar RSUExampleScenario.node[88].veinsmobility 	totalDistance 	226.57013207186
scalar RSUExampleScenario.node[88].veinsmobility 	totalCO2Emission 	189.8036715764
scalar RSUExampleScenario.node[89].veinsmobility 	startTime 	214.5
scalar RSUExampleScenario.node[89].veinsmobility 	totalTime 	135.5
scalar RSUExampleScenario.node[89].veinsmobility 	stopTime 	350
scalar RSUExampleScenario.node[89].veinsmobility 	minSpeed 	0
scalar RSUExampleScenario.node[89].veinsmobility 	maxSpeed 	13.87182227958
scalar RSUExampleScenario.node[89].veinsmobility 	totalDistance 	215.64742107719
scalar RSUExampleScenario.node[89].veinsmobility 	totalCO2Emission 	186.28561969218
scalar RSUExampleScenario.node[9].veinsmobility 	startTime 	21.7
scalar RSUExampleScenario.node[9].veinsmobility 	totalTime 	328.3
scalar RSUExampleScenario.node[9].veinsmobility 	stopTime 	350
scalar RSUExampleScenario.node[9].veinsmobility 	minSpeed 	0
scalar RSUExampleScenario.node[9].veinsmobility 	maxSpeed 	13.999854363871
scalar RSUExampleScenario.node[9].veinsmobility 	totalDistance 	2825.0603337915
scalar RSUExampleScenario.node[9].veinsmobility 	totalCO2Emission 	667.97196659033
scalar RSUExampleScenario.node[90].veinsmobility 	startTime 	217
scalar RSUExampleScenario.node[90].veinsmobility 	totalTime 	133
scalar RSUExampleScenario.node[90].veinsmobility 	stopTime 	350
scalar RSUExampleScenario.node[90].veinsmobility 	minSpeed 	0
scalar RSUExampleScenario.node[90].veinsmobility 	maxSpeed 	13.85236618639
scalar RSUExampleScenario.node[90].veinsmobility 	totalDistance 	202.38473307318
scalar RSUExampleScenario.node[90].veinsmobility 	totalCO2Emission 	183.12460781912
scalar RSUExampleScenario.node[91].veinsmobility 	startTime 	219.4
scalar RSUExampleScenario.node[91].veinsmobility 	totalTime 	130.6
scalar RSUExampleScenario.node[91].veinsmobility 	stopTime 	350
scalar RSUExampleScenario.node[91].veinsmobility 	minSpeed 	0
scalar RSUExampleScenario.node[91].veinsmobility 	maxSpeed 	13.843975729877
scalar RSUExampleScenario.node[91].veinsmobility 	totalDistance 	185.46131850387
scalar RSUExampleScenario.node[91].veinsmobility 	totalCO2Emission 	180.3381556373
scalar RSUExampleScenario.node[92].veinsmobility 	startTime 	221.8
scalar RSUExampleScenario.node[92].veinsmobility 	totalTime 	128.2
scalar RSUExampleScenario.node[92].veinsmobility 	stopTime 	350
scalar RSUExampleScenario.node[92].veinsmobility 	minSpeed 	0
scalar RSUExampleScenario.node[92].veinsmobility 	maxSpeed 	13.82695661678
scalar RSUExampleScenario.node[92].veinsmobility 	totalDistance 	150.42793018267
scalar RSUExampleScenario.node[92].veinsmobility 	totalCO2Emission 	166.8294089313
scalar RSUExampleScenario.node[93].veinsmobility 	startTime 	224.2
scalar RSUExampleScenario.node[93].veinsmobility 	totalTime 	125.8
scalar RSUExampleScenario.node[93].veinsmobility 	stopTime 	350
scalar RSUExampleScenario.node[93].veinsmobility 	minSpeed 	0
scalar RSUExampleScenario.node[93].veinsmobility 	maxSpeed 	13.875002135574
scalar RSUExampleScenario.node[93].veinsmobility 	totalDistance 	123.78236494542
scalar RSUExampleScenario.node[93].veinsmobility 	totalCO2Emission 	154.69331380418
scalar RSUExampleScenario.node[94].veinsmobility 	startTime 	226.6
scalar RSUExampleScenario.node[94].veinsmobility 	totalTime 	123.4
scalar RSUExampleScenario.node[94].veinsmobility 	stopTime 	350
scalar RSUExampleScenario.node[94].veinsmobility 	minSpeed 	0
scalar RSUExampleScenario.node[94].veinsmobility 	maxSpeed 	13.789203206587
scalar RSUExampleScenario.node[94].veinsmobility 	totalDistance 	112.32697809774
scalar RSUExampleScenario.node[94].veinsmobility 	totalCO2Emission 	148.64834982692
scalar RSUExampleScenario.node[95].veinsmobility 	startTime 	229
scalar RSUExampleScenario.node[95].veinsmobility 	totalTime 	121
scalar RSUExampleScenario.node[95].veinsmobility 	stopTime 	350
scalar RSUExampleScenario.node[95].veinsmobility 	minSpeed 	0
scalar RSUExampleScenario.node[95].veinsmobility 	maxSpeed 	13.748141237482
scalar RSUExampleScenario.node[95].veinsmobility 	totalDistance 	99.24938019563
scalar RSUExampleScenario.node[95].veinsmobility 	totalCO2Emission 	144.94947689027
scalar RSUExampleScenario.node[96].veinsmobility 	startTime 	231.4
scalar RSUExampleScenario.node[96].veinsmobility 	totalTime 	118.6
scalar RSUExampleScenario.node[96].veinsmobility 	stopTime 	350
scalar RSUExampleScenario.node[96].veinsmobility 	minSpeed 	0
scalar RSUExampleScenario.node[96].veinsmobility 	maxSpeed 	13.838460365178
scalar RSUExampleScenario.node[96].veinsmobility 	totalDistance 	82.933124929172
scalar RSUExampleScenario.node[96].veinsmobility 	totalCO2Emission 	142.61918310385
scalar RSUExampleScenario.node[97].veinsmobility 	startTime 	233.8
scalar RSUExampleScenario.node[97].veinsmobility 	totalTime 	116.2
scalar RSUExampleScenario.node[97].veinsmobility 	stopTime 	350
scalar RSUExampleScenario.node[97].veinsmobility 	minSpeed 	0
scalar RSUExampleScenario.node[97].veinsmobility 	maxSpeed 	12.623793653795
scalar RSUExampleScenario.node[97].veinsmobility 	totalDistance 	57.512984404572
scalar RSUExampleScenario.node[97].veinsmobility 	totalCO2Emission 	135.55850870386
scalar RSUExampleScenario.node[98].veinsmobility 	startTime 	236.2
scalar RSUExampleScenario.node[98].veinsmobility 	totalTime 	113.8
scalar RSUExampleScenario.node[98].veinsmobility 	stopTime 	350
scalar RSUExampleScenario.node[98].veinsmobility 	minSpeed 	0
scalar RSUExampleScenario.node[98].veinsmobility 	maxSpeed 	7.668698437292
scalar RSUExampleScenario.node[98].veinsmobility 	totalDistance 	21.669029417613
scalar RSUExampleScenario.node[98].veinsmobility 	totalCO2Emission 	119.1929836107
scalar RSUExampleScenario.node[99].veinsmobility 	startTime 	238.6
scalar RSUExampleScenario.node[99].veinsmobility 	totalTime 	111.4
scalar RSUExampleScenario.node[99].veinsmobility 	stopTime 	350
scalar RSUExampleScenario.node[99].veinsmobility 	minSpeed 	0
scalar RSUExampleScenario.node[99].veinsmobility 	maxSpeed 	3.0260492920331
scalar RSUExampleScenario.node[99].veinsmobility 	totalDistance 	3.2440175327755
scalar RSUExampleScenario.node[99].veinsmobility 	totalCO2Emission 	109.75623073911
