version 2
run statistic3-104-20150318-14:17:33-2520
attr c 19
attr configname statistic3
attr datetime 20150318-14:17:33
attr experiment statistic3
attr inifile omnetpp.ini
attr iterationvars "$p=1/10, $c=19"
attr iterationvars2 "$p=1/10, $c=19, $repetition=4"
attr measurement "$p=1/10, $c=19"
attr network RSUExampleScenario
attr p 1/10
attr processid 2520
attr repetition 4
attr replication #4
attr resultdir results
attr runnumber 104
attr seedset 104

scalar . 	c 	19
scalar RSUExampleScenario.rsu[0].appl 	NumberofCH 	11
scalar RSUExampleScenario.rsu[0].appl 	NumberofON 	88
scalar RSUExampleScenario.rsu[0].appl 	NumberofFN 	1
scalar RSUExampleScenario.rsu[0].appl 	meanClusterNodes 	8
scalar RSUExampleScenario.rsu[0].appl 	varClusterNodes 	5.6084352055226
scalar RSUExampleScenario.rsu[0].appl 	sumCHutility 	375.92691856489
scalar RSUExampleScenario.rsu[0].appl 	meanCHutility 	34.17517441499
scalar RSUExampleScenario.rsu[0].appl 	varCHutility 	10.886613635222
scalar RSUExampleScenario.rsu[0].appl 	sumDiffCHutility 	-4.5042947669275
scalar RSUExampleScenario.rsu[0].appl 	meanDiffCHutility 	-0.40948134244796
scalar RSUExampleScenario.rsu[0].appl 	varDiffCHutility 	10.934990974488
scalar RSUExampleScenario.rsu[0].appl 	expectedCHutility 	371.42262379797
scalar RSUExampleScenario.rsu[0].appl 	meanExpectedCHutility 	33.765693072542
scalar RSUExampleScenario.rsu[0].appl 	varExpectedCHutility 	0.46399335555095
