version 2
run statistic-2694-20150311-11:53:03-2532
attr c 9
attr configname statistic
attr datetime 20150311-11:53:03
attr experiment statistic
attr inifile omnetpp.ini
attr iterationvars "$p=1/5, $c=9"
attr iterationvars2 "$p=1/5, $c=9, $repetition=94"
attr measurement "$p=1/5, $c=9"
attr network RSUExampleScenario
attr p 1/5
attr processid 2532
attr repetition 94
attr replication #94
attr resultdir results
attr runnumber 2694
attr seedset 2694

scalar . 	c 	9
scalar RSUExampleScenario.rsu[0].appl 	NumberofCH 	25
scalar RSUExampleScenario.rsu[0].appl 	NumberofON 	75
scalar RSUExampleScenario.rsu[0].appl 	NumberofFN 	0
scalar RSUExampleScenario.rsu[0].appl 	meanClusterNodes 	3
scalar RSUExampleScenario.rsu[0].appl 	varClusterNodes 	1.8547236990991
scalar RSUExampleScenario.rsu[0].appl 	sumCHutility 	nan
scalar RSUExampleScenario.rsu[0].appl 	meanCHutility 	nan
scalar RSUExampleScenario.rsu[0].appl 	varCHutility 	nan
scalar RSUExampleScenario.rsu[0].appl 	sumDiffCHutility 	-28933.223800767
scalar RSUExampleScenario.rsu[0].appl 	meanDiffCHutility 	-1157.3289520307
scalar RSUExampleScenario.rsu[0].appl 	varDiffCHutility 	727.88074196891
scalar RSUExampleScenario.rsu[0].appl 	expectedCHutility 	853.09352294316
scalar RSUExampleScenario.rsu[0].appl 	meanExpectedCHutility 	34.123740917727
scalar RSUExampleScenario.rsu[0].appl 	varExpectedCHutility 	3.706406525401
